pglib_opf_case500_tamu/pglib_opf_case500_tamu_5regions.m
% -------------------------------------------------------------------------
% Partitioned MATPOWER Case File
% Copyright (c) 2025 Milad Hasanzadeh
% Generated on: 2025-06-05
% This file contains partitioned data for 5 regions


% -------------------- mpc_regionR1 --------------------

mpc_regionR1.version = '2';
mpc_regionR1.baseMVA = 100.0000;
mpc_regionR1.bus = [
%	bus_i       type        Pd          Qd          Gs          Bs          area        Vm          Va          baseKV      zone        Vmax        Vmin        
	 1	 1	 0	 0	 0	 0	 1	 1	 0	 138	 2	 1.1	 0.9;
	 2	 1	 4.54	 1.21	 0	 0	 1	 1	 0	 138	 2	 1.1	 0.9;
	 3	 1	 0	 0	 0	 0	 1	 1	 0	 138	 2	 1.1	 0.9;
	 4	 1	 148.7	 39.65	 0	 0	 1	 1	 0	 138	 2	 1.1	 0.9;
	 5	 1	 0	 0	 0	 100	 1	 1	 0	 138	 2	 1.1	 0.9;
	 6	 1	 9.76	 2.6	 0	 0	 1	 1	 0	 138	 2	 1.1	 0.9;
	 7	 1	 0	 0	 0	 0	 1	 1	 0	 138	 2	 1.1	 0.9;
	 8	 1	 43.35	 11.56	 0	 0	 1	 1	 0	 138	 2	 1.1	 0.9;
	 9	 1	 0	 0	 0	 0	 1	 1	 0	 138	 2	 1.1	 0.9;
	 10	 1	 4.46	 1.19	 0	 0	 1	 1	 0	 138	 2	 1.1	 0.9;
	 11	 1	 0	 0	 0	 0	 1	 1	 0	 138	 1	 1.1	 0.9;
	 12	 1	 2.25	 0.6	 0	 0	 1	 1	 0	 138	 1	 1.1	 0.9;
	 13	 1	 0	 0	 0	 0	 1	 1	 0	 345	 1	 1.1	 0.9;
	 14	 1	 0	 0	 0	 0	 1	 1	 0	 138	 1	 1.1	 0.9;
	 15	 1	 4.57	 1.22	 0	 0	 1	 1	 0	 138	 1	 1.1	 0.9;
	 16	 1	 0	 0	 0	 0	 1	 1	 0	 138	 2	 1.1	 0.9;
	 17	 1	 5.3	 1.41	 0	 0	 1	 1	 0	 138	 2	 1.1	 0.9;
	 18	 1	 0	 0	 0	 0	 1	 1	 0	 345	 2	 1.1	 0.9;
	 19	 1	 0	 0	 0	 0	 1	 1	 0	 138	 2	 1.1	 0.9;
	 20	 2	 0	 0	 0	 0	 1	 1	 0	 13.8	 2	 1.1	 0.9;
	 21	 1	 0	 0	 0	 0	 1	 1	 0	 138	 2	 1.1	 0.9;
	 22	 1	 17.59	 4.69	 0	 0	 1	 1	 0	 138	 2	 1.1	 0.9;
	 23	 1	 0	 0	 0	 0	 1	 1	 0	 138	 1	 1.1	 0.9;
	 24	 1	 38.8	 10.35	 0	 0	 1	 1	 0	 138	 1	 1.1	 0.9;
	 25	 1	 0	 0	 0	 0	 1	 1	 0	 138	 2	 1.1	 0.9;
	 26	 1	 80.33	 21.42	 0	 0	 1	 1	 0	 138	 2	 1.1	 0.9;
	 27	 1	 0	 0	 0	 0	 1	 1	 0	 138	 2	 1.1	 0.9;
	 28	 1	 16.01	 4.27	 0	 0	 1	 1	 0	 138	 2	 1.1	 0.9;
	 29	 1	 0	 0	 0	 0	 1	 1	 0	 138	 2	 1.1	 0.9;
	 30	 1	 45.99	 12.26	 0	 0	 1	 1	 0	 138	 2	 1.1	 0.9;
	 31	 1	 0	 0	 0	 0	 1	 1	 0	 138	 2	 1.1	 0.9;
	 32	 1	 5.06	 1.35	 0	 0	 1	 1	 0	 138	 2	 1.1	 0.9;
	 33	 1	 3.1	 0.83	 0	 0	 1	 1	 0	 138	 2	 1.1	 0.9;
	 34	 1	 0	 0	 0	 0	 1	 1	 0	 138	 2	 1.1	 0.9;
	 35	 1	 1.5	 0.4	 0	 0	 1	 1	 0	 138	 2	 1.1	 0.9;
	 36	 1	 0	 0	 0	 0	 1	 1	 0	 138	 2	 1.1	 0.9;
	 37	 1	 25.95	 6.92	 0	 0	 1	 1	 0	 138	 2	 1.1	 0.9;
	 38	 1	 0	 0	 0	 0	 1	 1	 0	 138	 2	 1.1	 0.9;
	 39	 1	 14.07	 3.75	 0	 0	 1	 1	 0	 138	 2	 1.1	 0.9;
	 40	 1	 0	 0	 0	 0	 1	 1	 0	 138	 2	 1.1	 0.9;
	 41	 1	 16.44	 4.38	 0	 0	 1	 1	 0	 138	 2	 1.1	 0.9;
	 42	 1	 0	 0	 0	 0	 1	 1	 0	 138	 2	 1.1	 0.9;
	 43	 1	 28.69	 7.65	 0	 0	 1	 1	 0	 138	 2	 1.1	 0.9;
	 44	 1	 0	 0	 0	 0	 1	 1	 0	 138	 2	 1.1	 0.9;
	 45	 1	 3.01	 0.8	 0	 0	 1	 1	 0	 138	 2	 1.1	 0.9;
	 46	 1	 22.57	 6.02	 0	 0	 1	 1	 0	 138	 2	 1.1	 0.9;
	 47	 1	 0	 0	 0	 0	 1	 1	 0	 138	 2	 1.1	 0.9;
	 48	 1	 97.48	 26	 0	 0	 1	 1	 0	 138	 2	 1.1	 0.9;
	 49	 1	 0	 0	 0	 0	 1	 1	 0	 138	 2	 1.1	 0.9;
	 50	 1	 0.33	 0.09	 0	 0	 1	 1	 0	 138	 2	 1.1	 0.9;
	 51	 1	 0	 0	 0	 0	 1	 1	 0	 345	 2	 1.1	 0.9;
	 52	 1	 0	 0	 0	 0	 1	 1	 0	 138	 2	 1.1	 0.9;
	 53	 1	 2.71	 0.72	 0	 0	 1	 1	 0	 138	 2	 1.1	 0.9;
	 54	 1	 0	 0	 0	 0	 1	 1	 0	 138	 2	 1.1	 0.9;
	 55	 1	 19.74	 5.26	 0	 0	 1	 1	 0	 138	 2	 1.1	 0.9;
	 56	 1	 0	 0	 0	 0	 1	 1	 0	 138	 2	 1.1	 0.9;
	 57	 1	 117.15	 31.24	 0	 0	 1	 1	 0	 138	 2	 1.1	 0.9;
	 58	 1	 0	 0	 0	 0	 1	 1	 0	 345	 2	 1.1	 0.9;
	 59	 1	 0	 0	 0	 0	 1	 1	 0	 138	 2	 1.1	 0.9;
	 60	 1	 9.49	 2.53	 0	 0	 1	 1	 0	 138	 2	 1.1	 0.9;
	 61	 1	 0	 0	 0	 0	 1	 1	 0	 138	 2	 1.1	 0.9;
	 62	 1	 32.65	 8.71	 0	 0	 1	 1	 0	 138	 2	 1.1	 0.9;
	 63	 1	 0	 0	 0	 0	 1	 1	 0	 138	 2	 1.1	 0.9;
	 64	 1	 25.6	 6.83	 0	 0	 1	 1	 0	 138	 2	 1.1	 0.9;
	 65	 1	 0	 0	 0	 0	 1	 1	 0	 138	 1	 1.1	 0.9;
	 66	 1	 9.03	 2.41	 0	 0	 1	 1	 0	 138	 1	 1.1	 0.9;
	 67	 1	 0	 0	 0	 0	 1	 1	 0	 138	 2	 1.1	 0.9;
	 68	 1	 12.44	 3.32	 0	 0	 1	 1	 0	 138	 2	 1.1	 0.9;
	 69	 1	 0	 0	 0	 0	 1	 1	 0	 138	 2	 1.1	 0.9;
	 70	 1	 23.03	 6.14	 0	 0	 1	 1	 0	 138	 2	 1.1	 0.9;
	 71	 1	 0	 0	 0	 0	 1	 1	 0	 345	 2	 1.1	 0.9;
	 72	 1	 0	 0	 0	 0	 1	 1	 0	 138	 2	 1.1	 0.9;
	 73	 2	 0	 0	 0	 0	 1	 1	 0	 13.8	 2	 1.1	 0.9;
	 74	 2	 0	 0	 0	 0	 1	 1	 0	 13.8	 2	 1.1	 0.9;
	 75	 2	 0	 0	 0	 0	 1	 1	 0	 13.8	 2	 1.1	 0.9;
	 76	 2	 0	 0	 0	 0	 1	 1	 0	 13.8	 2	 1.1	 0.9;
	 77	 2	 0	 0	 0	 0	 1	 1	 0	 13.8	 2	 1.1	 0.9;
	 78	 2	 0	 0	 0	 0	 1	 1	 0	 13.8	 2	 1.1	 0.9;
	 79	 1	 0	 0	 0	 0	 1	 1	 0	 138	 1	 1.1	 0.9;
	 80	 1	 5.23	 1.39	 0	 0	 1	 1	 0	 138	 1	 1.1	 0.9;
	 81	 1	 3.68	 0.98	 0	 0	 1	 1	 0	 138	 2	 1.1	 0.9;
	 82	 1	 23.43	 6.25	 0	 0	 1	 1	 0	 138	 2	 1.1	 0.9;
];

mpc_regionR1.gen = [
%	bus         Pg          Qg          Qmax        Qmin        Vg          mBase       status      Pmax        Pmin        Pc1         Pc2         Qc1min      Qc1max      Qc2min      Qc2max      ramp_agc    ramp_10     ramp_30     ramp_q      apf         
	 20	 235.235	 60.62	 138.97	-17.73	 1	 434.28	 1	 361.9	 108.57;
	 73	 0	 0	 50.9	-11.1	 1	 120	 0	 100	 30;
	 74	 89.015	 27.255	 69.71	-15.2	 1	 164.34	 1	 136.95	 41.08;
	 75	 89.015	 27.255	 69.71	-15.2	 1	 164.34	 1	 136.95	 41.08;
	 76	 89.015	 27.255	 69.71	-15.2	 1	 164.34	 1	 136.95	 41.08;
	 77	 89.015	 27.255	 69.71	-15.2	 1	 164.34	 1	 136.95	 41.08;
	 78	 0	 0	 56.55	-12.33	 1	 133.32	 0	 111.1	 33.33;
];

mpc_regionR1.branch = [
%	fbus        tbus        r           x           b           rateA       rateB       rateC       ratio       angle       status      angmin      angmax      
	 2	 1	 0.000541	 0.003886	 0	 7.53	 7.53	 7.53	 0	 0	 1	-30	 30;
	 1	 29	 0.004722	 0.045345	 0.01464	 320.29	 320.29	 320.29	 0	 0	 1	-30	 30;
	 42	 1	 0.002221	 0.021323	 0.00688	 320.29	 320.29	 320.29	 0	 0	 1	-30	 30;
	 1	 59	 0.002293	 0.02202	 0.00711	 320.29	 320.29	 320.29	 0	 0	 1	-30	 30;
	 4	 3	 0.000587	 0.003174	 0	 254.15	 254.15	 254.15	 0	 0	 1	-30	 30;
	 3	 29	 0.005092	 0.048896	 0.01578	 320.29	 320.29	 320.29	 0	 0	 1	-30	 30;
	 6	 5	 0.000625	 0.003429	 0	 15.7	 15.7	 15.7	 0	 0	 1	-30	 30;
	 5	 21	 0.005303	 0.050926	 0.01644	 320.29	 320.29	 320.29	 0	 0	 1	-30	 30;
	 25	 5	 0.005526	 0.053062	 0.01713	 320.29	 320.29	 320.29	 0	 0	 1	-30	 30;
	 5	 38	 0.005707	 0.0548	 0.01769	 320.29	 320.29	 320.29	 0	 0	 1	-30	 30;
	 5	 44	 0.007797	 0.074869	 0.02417	 320.29	 320.29	 320.29	 0	 0	 1	-30	 30;
	 5	 49	 0.008273	 0.079446	 0.02565	 320.29	 320.29	 320.29	 0	 0	 1	-30	 30;
	 56	 5	 0.004897	 0.047021	 0.01518	 320.29	 320.29	 320.29	 0	 0	 1	-30	 30;
	 8	 7	 0.000583	 0.00303	 0	 62.87	 62.87	 62.87	 0	 0	 1	-30	 30;
	 40	 7	 0.004038	 0.037042	 0.01313	 320.29	 320.29	 320.29	 0	 0	 1	-30	 30;
	 7	 69	 0.005636	 0.054123	 0.01747	 320.29	 320.29	 320.29	 0	 0	 1	-30	 30;
	 10	 9	 0.000542	 0.003119	 0	 7.7	 7.7	 7.7	 0	 0	 1	-30	 30;
	 19	 9	 0.002361	 0.02166	 0.00768	 320.29	 320.29	 320.29	 0	 0	 1	-30	 30;
	 9	 40	 0.006368	 0.05842	 0.0207	 320.29	 320.29	 320.29	 0	 0	 1	-30	 30;
	 12	 11	 0.000641	 0.00331	 0	 3.15	 3.15	 3.15	 0	 0	 1	-30	 30;
	 11	 14	 0.00433	 0.041575	 0.01342	 320.29	 320.29	 320.29	 0	 0	 1	-30	 30;
	 11	 82	 0.004481	 0.041102	 0.01457	 320.29	 320.29	 320.29	 0	 0	 1	-30	 30;
	 14	 13	 0.000808	 0.03088	 0	 405	 405	 405	 1	 0	 1	-30	 30;
	 18	 13	 0.00096	 0.013773	 0.24648	 1493.89	 1493.89	 1493.89	 0	 0	 1	-30	 30;
	 15	 14	 0.000661	 0.003359	 0	 6.71	 6.71	 6.71	 0	 0	 1	-30	 30;
	 14	 65	 0.00718	 0.06895	 0.02226	 320.29	 320.29	 320.29	 0	 0	 1	-30	 30;
	 17	 16	 0.000584	 0.003339	 0	 8.81	 8.81	 8.81	 0	 0	 1	-30	 30;
	 16	 38	 0.005632	 0.054084	 0.01746	 320.29	 320.29	 320.29	 0	 0	 1	-30	 30;
	 54	 16	 0.004434	 0.04067	 0.01441	 320.29	 320.29	 320.29	 0	 0	 1	-30	 30;
	 19	 18	 0.00065	 0.03481	 0	 529	 529	 529	 1	 0	 1	-30	 30;
	 20	 18	 0.00043	 0.03113	 0	 628	 628	 628	 1	 0	 1	-30	 30;
	 71	 18	 0.000818	 0.010825	 0.22813	 1493.89	 1493.89	 1493.89	 0	 0	 1	-30	 30;
	 34	 19	 0.002879	 0.02641	 0.00936	 320.29	 320.29	 320.29	 0	 0	 1	-30	 30;
	 22	 21	 0.000652	 0.003901	 0	 30.04	 30.04	 30.04	 0	 0	 1	-30	 30;
	 59	 21	 0.004412	 0.04047	 0.01434	 320.29	 320.29	 320.29	 0	 0	 1	-30	 30;
	 24	 23	 0.000614	 0.003874	 0	 64.6	 64.6	 64.6	 0	 0	 1	-30	 30;
	 23	 65	 0.00565	 0.054254	 0.01751	 320.29	 320.29	 320.29	 0	 0	 1	-30	 30;
	 79	 23	 0.003638	 0.034938	 0.01128	 320.29	 320.29	 320.29	 0	 0	 1	-30	 30;
	 26	 25	 0.000673	 0.003751	 0	 144.23	 144.23	 144.23	 0	 0	 1	-30	 30;
	 25	 40	 0.005177	 0.047485	 0.01683	 320.29	 320.29	 320.29	 0	 0	 1	-30	 30;
	 28	 27	 0.000575	 0.003206	 0	 24.46	 24.46	 24.46	 0	 0	 1	-30	 30;
	 27	 40	 0.004468	 0.042904	 0.01385	 320.29	 320.29	 320.29	 0	 0	 1	-30	 30;
	 52	 27	 0.003115	 0.029915	 0.00966	 320.29	 320.29	 320.29	 0	 0	 1	-30	 30;
	 30	 29	 0.000644	 0.003119	 0	 72.98	 72.98	 72.98	 0	 0	 1	-30	 30;
	 42	 29	 0.002867	 0.027534	 0.00889	 320.29	 320.29	 320.29	 0	 0	 1	-30	 30;
	 29	 52	 0.006329	 0.060777	 0.01962	 320.29	 320.29	 320.29	 0	 0	 1	-30	 30;
	 29	 61	 0.008619	 0.08276	 0.02672	 320.29	 320.29	 320.29	 0	 0	 1	-30	 30;
	 32	 31	 0.000506	 0.00336	 0	 6.74	 6.74	 6.74	 0	 0	 1	-30	 30;
	 33	 31	 0.000505	 0.003411	 0	 5.26	 5.26	 5.26	 0	 0	 1	-30	 30;
	 31	 40	 0.005557	 0.053364	 0.01723	 320.29	 320.29	 320.29	 0	 0	 1	-30	 30;
	 31	 67	 0.006609	 0.063462	 0.02049	 320.29	 320.29	 320.29	 0	 0	 1	-30	 30;
	 35	 34	 0.00068	 0.003693	 0	 2.36	 2.36	 2.36	 0	 0	 1	-30	 30;
	 63	 34	 0.004385	 0.042112	 0.01359	 320.29	 320.29	 320.29	 0	 0	 1	-30	 30;
	 81	 34	 0.002444	 0.023466	 0.00758	 320.29	 320.29	 320.29	 0	 0	 1	-30	 30;
	 37	 36	 0.000556	 0.003568	 0	 44.84	 44.84	 44.84	 0	 0	 1	-30	 30;
	 36	 47	 0.002567	 0.02465	 0.00796	 320.29	 320.29	 320.29	 0	 0	 1	-30	 30;
	 36	 69	 0.004015	 0.036828	 0.01305	 320.29	 320.29	 320.29	 0	 0	 1	-30	 30;
	 39	 38	 0.00069	 0.00301	 0	 22.9	 22.9	 22.9	 0	 0	 1	-30	 30;
	 41	 40	 0.000684	 0.003764	 0	 27.24	 27.24	 27.24	 0	 0	 1	-30	 30;
	 40	 44	 0.005326	 0.051141	 0.01651	 320.29	 320.29	 320.29	 0	 0	 1	-30	 30;
	 40	 63	 0.005164	 0.049592	 0.01601	 320.29	 320.29	 320.29	 0	 0	 1	-30	 30;
	 43	 42	 0.000696	 0.003802	 0	 49.31	 49.31	 49.31	 0	 0	 1	-30	 30;
	 45	 44	 0.000554	 0.003028	 0	 4.37	 4.37	 4.37	 0	 0	 1	-30	 30;
	 46	 44	 0.000653	 0.0037	 0	 30.41	 30.41	 30.41	 0	 0	 1	-30	 30;
	 44	 67	 0.006767	 0.062072	 0.022	 320.29	 320.29	 320.29	 0	 0	 1	-30	 30;
	 48	 47	 0.000628	 0.003685	 0	 155.03	 155.03	 155.03	 0	 0	 1	-30	 30;
	 47	 69	 0.003344	 0.032113	 0.01037	 320.29	 320.29	 320.29	 0	 0	 1	-30	 30;
	 72	 47	 0.002879	 0.027648	 0.00893	 320.29	 320.29	 320.29	 0	 0	 1	-30	 30;
	 50	 49	 0.000581	 0.003657	 0	 0.6	 0.6	 0.6	 0	 0	 1	-30	 30;
	 49	 69	 0.004545	 0.043647	 0.01409	 320.29	 320.29	 320.29	 0	 0	 1	-30	 30;
	 52	 51	 0.00024	 0.02788	 0	 507	 507	 507	 1	 0	 1	-30	 30;
	 51	 58	 0.000313	 0.004136	 0.08716	 1493.89	 1493.89	 1493.89	 0	 0	 1	-30	 30;
	 51	 71	 0.001237	 0.016366	 0.3449	 1493.89	 1493.89	 1493.89	 0	 0	 1	-30	 30;
	 53	 52	 0.000696	 0.003348	 0	 4.32	 4.32	 4.32	 0	 0	 1	-30	 30;
	 61	 52	 0.004516	 0.041425	 0.01468	 320.29	 320.29	 320.29	 0	 0	 1	-30	 30;
	 55	 54	 0.00054	 0.003983	 0	 27.17	 27.17	 27.17	 0	 0	 1	-30	 30;
	 54	 59	 0.011645	 0.10682	 0.03785	 320.29	 320.29	 320.29	 0	 0	 1	-30	 30;
	 57	 56	 0.000502	 0.003575	 0	 206.87	 206.87	 206.87	 0	 0	 1	-30	 30;
	 67	 56	 0.004476	 0.042984	 0.01388	 320.29	 320.29	 320.29	 0	 0	 1	-30	 30;
	 59	 58	 0.001006	 0.03765	 0	 484	 484	 484	 1	 0	 1	-30	 30;
	 60	 59	 0.000567	 0.003997	 0	 15.37	 15.37	 15.37	 0	 0	 1	-30	 30;
	 62	 61	 0.000645	 0.003988	 0	 48.08	 48.08	 48.08	 0	 0	 1	-30	 30;
	 64	 63	 0.000645	 0.00329	 0	 35.71	 35.71	 35.71	 0	 0	 1	-30	 30;
	 66	 65	 0.000658	 0.003995	 0	 13.62	 13.62	 13.62	 0	 0	 1	-30	 30;
	 65	 82	 0.006944	 0.066685	 0.02153	 320.29	 320.29	 320.29	 0	 0	 1	-30	 30;
	 68	 67	 0.000642	 0.003976	 0	 17.95	 17.95	 17.95	 0	 0	 1	-30	 30;
	 69	 67	 0.004822	 0.046299	 0.01495	 320.29	 320.29	 320.29	 0	 0	 1	-30	 30;
	 70	 69	 0.000694	 0.003966	 0	 31.68	 31.68	 31.68	 0	 0	 1	-30	 30;
	 72	 69	 0.001618	 0.015538	 0.00502	 320.29	 320.29	 320.29	 0	 0	 1	-30	 30;
	 72	 71	 0.00036	 0.01366	 0	 595	 595	 595	 1	 0	 1	-30	 30;
	 73	 71	 0.00054	 0.0611	 0	 326	 326	 326	 1	 0	 1	-30	 30;
	 74	 71	 0.00027	 0.04197	 0	 445	 445	 445	 1	 0	 1	-30	 30;
	 75	 71	 0.00016	 0.02349	 0	 441	 441	 441	 1	 0	 1	-30	 30;
	 76	 71	 0.0002	 0.02693	 0	 431	 431	 431	 1	 0	 1	-30	 30;
	 77	 71	 0.00056	 0.04036	 0	 436	 436	 436	 1	 0	 1	-30	 30;
	 78	 71	 0.000999	 0.04423	 0	 342	 342	 342	 1	 0	 1	-30	 30;
	 80	 79	 0.000565	 0.003753	 0	 8.45	 8.45	 8.45	 0	 0	 1	-30	 30;
	 82	 81	 0.004696	 0.043073	 0.01526	 320.29	 320.29	 320.29	 0	 0	 1	-30	 30;
];

mpc_regionR1.gencost = [
%	2           startup     shutdown    n           c(n-1)...c0 
	 2	 0	 0	 3	 0	 0	 0;
	 2	 0	 0	 3	 0.002	 23.808	 750;
	 2	 0	 0	 3	 0.002	 24.059	 805.42;
	 2	 0	 0	 3	 0.002	 24.059	 805.42;
	 2	 0	 0	 3	 0.002	 24.059	 805.42;
	 2	 0	 0	 3	 0.002	 24.059	 805.42;
	 2	 0	 0	 3	 0.002	 23.883	 766.65;
];


% -------------------- mpc_regionR2 --------------------

mpc_regionR2.version = '2';
mpc_regionR2.baseMVA = 100.0000;
mpc_regionR2.bus = [
%	bus_i       type        Pd          Qd          Gs          Bs          area        Vm          Va          baseKV      zone        Vmax        Vmin        
	 1	 1	 0	 0	 0	 0	 1	 1	 0	 345	 1	 1.1	 0.9;
	 2	 1	 0	 0	 0	 0	 1	 1	 0	 138	 1	 1.1	 0.9;
	 3	 2	 0	 0	 0	 0	 1	 1	 0	 13.8	 1	 1.1	 0.9;
	 4	 3	 0	 0	 0	 0	 1	 1	 0	 13.8	 1	 1.1	 0.9;
	 5	 2	 0	 0	 0	 0	 1	 1	 0	 13.8	 1	 1.1	 0.9;
	 6	 1	 0	 0	 0	 0	 1	 1	 0	 345	 1	 1.1	 0.9;
	 7	 1	 0	 0	 0	 0	 1	 1	 0	 138	 1	 1.1	 0.9;
	 8	 1	 2.28	 0.61	 0	 0	 1	 1	 0	 138	 1	 1.1	 0.9;
	 9	 1	 21.66	 5.78	 0	 0	 1	 1	 0	 138	 1	 1.1	 0.9;
	 10	 1	 0	 0	 0	 50	 1	 1	 0	 138	 1	 1.1	 0.9;
	 11	 1	 62.93	 16.78	 0	 0	 1	 1	 0	 138	 1	 1.1	 0.9;
	 12	 1	 0	 0	 0	 0	 1	 1	 0	 345	 1	 1.1	 0.9;
	 13	 1	 0	 0	 0	 0	 1	 1	 0	 138	 1	 1.1	 0.9;
	 14	 1	 57.99	 15.46	 0	 0	 1	 1	 0	 138	 1	 1.1	 0.9;
	 15	 1	 0	 0	 0	 0	 1	 1	 0	 138	 1	 1.1	 0.9;
	 16	 1	 43.41	 11.58	 0	 0	 1	 1	 0	 138	 1	 1.1	 0.9;
	 17	 1	 0	 0	 0	 0	 1	 1	 0	 138	 1	 1.1	 0.9;
	 18	 2	 0	 0	 0	 0	 1	 1	 0	 13.8	 1	 1.1	 0.9;
	 19	 2	 0	 0	 0	 0	 1	 1	 0	 13.8	 1	 1.1	 0.9;
	 20	 1	 0.35	 0.09	 0	 0	 1	 1	 0	 138	 1	 1.1	 0.9;
	 21	 1	 23.39	 6.24	 0	 0	 1	 1	 0	 138	 1	 1.1	 0.9;
	 22	 1	 0	 0	 0	 0	 1	 1	 0	 345	 1	 1.1	 0.9;
	 23	 1	 0	 0	 0	 0	 1	 1	 0	 138	 1	 1.1	 0.9;
	 24	 1	 140.94	 37.58	 0	 0	 1	 1	 0	 138	 1	 1.1	 0.9;
	 25	 1	 0	 0	 0	 0	 1	 1	 0	 138	 1	 1.1	 0.9;
	 26	 1	 0.2	 0.05	 0	 0	 1	 1	 0	 138	 1	 1.1	 0.9;
	 27	 1	 0	 0	 0	 0	 1	 1	 0	 138	 1	 1.1	 0.9;
	 28	 1	 0.38	 0.1	 0	 0	 1	 1	 0	 138	 1	 1.1	 0.9;
	 29	 1	 0	 0	 0	 0	 1	 1	 0	 138	 1	 1.1	 0.9;
	 30	 1	 65.03	 17.34	 0	 0	 1	 1	 0	 138	 1	 1.1	 0.9;
	 31	 1	 0	 0	 0	 0	 1	 1	 0	 138	 1	 1.1	 0.9;
	 32	 1	 34	 9.07	 0	 0	 1	 1	 0	 138	 1	 1.1	 0.9;
	 33	 1	 0	 0	 0	 0	 1	 1	 0	 138	 1	 1.1	 0.9;
	 34	 1	 37.09	 9.89	 0	 0	 1	 1	 0	 138	 1	 1.1	 0.9;
	 35	 1	 0	 0	 0	 0	 1	 1	 0	 138	 1	 1.1	 0.9;
	 36	 1	 13.52	 3.61	 0	 0	 1	 1	 0	 138	 1	 1.1	 0.9;
	 37	 1	 0.89	 0.24	 0	 0	 1	 1	 0	 138	 1	 1.1	 0.9;
	 38	 1	 0	 0	 0	 0	 1	 1	 0	 138	 1	 1.1	 0.9;
	 39	 1	 47.58	 12.69	 0	 0	 1	 1	 0	 138	 1	 1.1	 0.9;
	 40	 1	 0	 0	 0	 0	 1	 1	 0	 138	 1	 1.1	 0.9;
	 41	 1	 31.65	 8.44	 0	 0	 1	 1	 0	 138	 1	 1.1	 0.9;
	 42	 1	 0	 0	 0	 0	 1	 1	 0	 345	 1	 1.1	 0.9;
	 43	 1	 0	 0	 0	 0	 1	 1	 0	 138	 1	 1.1	 0.9;
	 44	 2	 0	 0	 0	 0	 1	 1	 0	 13.8	 1	 1.1	 0.9;
	 45	 2	 0	 0	 0	 0	 1	 1	 0	 13.8	 1	 1.1	 0.9;
	 46	 2	 0	 0	 0	 0	 1	 1	 0	 13.8	 1	 1.1	 0.9;
	 47	 2	 0	 0	 0	 0	 1	 1	 0	 13.8	 1	 1.1	 0.9;
	 48	 1	 0	 0	 0	 0	 1	 1	 0	 138	 1	 1.1	 0.9;
	 49	 1	 103.24	 27.53	 0	 0	 1	 1	 0	 138	 1	 1.1	 0.9;
	 50	 1	 0	 0	 0	 0	 1	 1	 0	 138	 1	 1.1	 0.9;
	 51	 1	 25.2	 6.72	 0	 0	 1	 1	 0	 138	 1	 1.1	 0.9;
	 52	 1	 0	 0	 0	 0	 1	 1	 0	 138	 1	 1.1	 0.9;
	 53	 1	 42.65	 11.37	 0	 0	 1	 1	 0	 138	 1	 1.1	 0.9;
	 54	 1	 0	 0	 0	 0	 1	 1	 0	 138	 1	 1.1	 0.9;
	 55	 1	 0.26	 0.07	 0	 0	 1	 1	 0	 138	 1	 1.1	 0.9;
	 56	 1	 0	 0	 0	 0	 1	 1	 0	 345	 1	 1.1	 0.9;
	 57	 1	 0	 0	 0	 70	 1	 1	 0	 138	 1	 1.1	 0.9;
	 58	 1	 93.15	 24.84	 0	 0	 1	 1	 0	 138	 1	 1.1	 0.9;
	 59	 1	 0	 0	 0	 0	 1	 1	 0	 138	 1	 1.1	 0.9;
	 60	 1	 66.84	 17.82	 0	 0	 1	 1	 0	 138	 1	 1.1	 0.9;
	 61	 1	 0	 0	 0	 0	 1	 1	 0	 138	 1	 1.1	 0.9;
	 62	 1	 105.45	 28.12	 0	 0	 1	 1	 0	 138	 1	 1.1	 0.9;
	 63	 1	 0	 0	 0	 0	 1	 1	 0	 345	 1	 1.1	 0.9;
	 64	 1	 0	 0	 0	 0	 1	 1	 0	 138	 1	 1.1	 0.9;
	 65	 2	 0	 0	 0	 0	 1	 1	 0	 13.8	 1	 1.1	 0.9;
	 66	 2	 0	 0	 0	 0	 1	 1	 0	 13.8	 1	 1.1	 0.9;
	 67	 2	 0	 0	 0	 0	 1	 1	 0	 13.8	 1	 1.1	 0.9;
	 68	 1	 0	 0	 0	 0	 1	 1	 0	 138	 1	 1.1	 0.9;
	 69	 1	 12.38	 3.3	 0	 0	 1	 1	 0	 138	 1	 1.1	 0.9;
	 70	 1	 0	 0	 0	 60	 1	 1	 0	 138	 1	 1.1	 0.9;
	 71	 1	 82.61	 22.03	 0	 0	 1	 1	 0	 138	 1	 1.1	 0.9;
	 72	 1	 0	 0	 0	 0	 1	 1	 0	 138	 1	 1.1	 0.9;
	 73	 1	 45.35	 12.09	 0	 0	 1	 1	 0	 138	 1	 1.1	 0.9;
	 74	 1	 0	 0	 0	 80	 1	 1	 0	 138	 1	 1.1	 0.9;
	 75	 1	 81.85	 21.83	 0	 0	 1	 1	 0	 138	 1	 1.1	 0.9;
	 76	 1	 0	 0	 0	 0	 1	 1	 0	 138	 1	 1.1	 0.9;
	 77	 1	 34.28	 9.14	 0	 0	 1	 1	 0	 138	 1	 1.1	 0.9;
	 78	 1	 0	 0	 0	 0	 1	 1	 0	 138	 1	 1.1	 0.9;
	 79	 1	 5.42	 1.45	 0	 0	 1	 1	 0	 138	 1	 1.1	 0.9;
	 80	 1	 0	 0	 0	 0	 1	 1	 0	 138	 1	 1.1	 0.9;
	 81	 1	 54.09	 14.42	 0	 0	 1	 1	 0	 138	 1	 1.1	 0.9;
	 82	 1	 0	 0	 0	 0	 1	 1	 0	 138	 1	 1.1	 0.9;
	 83	 2	 0	 0	 0	 0	 1	 1	 0	 13.8	 1	 1.1	 0.9;
	 84	 1	 0	 0	 0	 0	 1	 1	 0	 138	 1	 1.1	 0.9;
	 85	 1	 39.13	 10.44	 0	 0	 1	 1	 0	 138	 1	 1.1	 0.9;
	 86	 1	 0	 0	 0	 0	 1	 1	 0	 345	 1	 1.1	 0.9;
	 87	 2	 0	 0	 0	 0	 1	 1	 0	 13.8	 1	 1.1	 0.9;
	 88	 2	 0	 0	 0	 0	 1	 1	 0	 13.8	 1	 1.1	 0.9;
	 89	 2	 0	 0	 0	 0	 1	 1	 0	 13.8	 1	 1.1	 0.9;
	 90	 1	 0	 0	 0	 0	 1	 1	 0	 138	 1	 1.1	 0.9;
	 91	 1	 118.68	 31.65	 0	 0	 1	 1	 0	 138	 1	 1.1	 0.9;
	 92	 1	 0	 0	 0	 0	 1	 1	 0	 138	 1	 1.1	 0.9;
	 93	 2	 0	 0	 0	 0	 1	 1	 0	 13.8	 1	 1.1	 0.9;
	 94	 2	 0	 0	 0	 0	 1	 1	 0	 13.8	 1	 1.1	 0.9;
	 95	 2	 0	 0	 0	 0	 1	 1	 0	 13.8	 1	 1.1	 0.9;
	 96	 2	 0	 0	 0	 0	 1	 1	 0	 13.8	 1	 1.1	 0.9;
	 97	 2	 0	 0	 0	 0	 1	 1	 0	 13.8	 1	 1.1	 0.9;
	 98	 1	 8.16	 2.18	 0	 0	 1	 1	 0	 138	 1	 1.1	 0.9;
	 99	 1	 0	 0	 0	 0	 1	 1	 0	 138	 1	 1.1	 0.9;
	 100	 1	 18.68	 4.98	 0	 0	 1	 1	 0	 138	 1	 1.1	 0.9;
	 101	 1	 0	 0	 0	 0	 1	 1	 0	 138	 1	 1.1	 0.9;
	 102	 1	 16.94	 4.52	 0	 0	 1	 1	 0	 138	 1	 1.1	 0.9;
	 103	 1	 0	 0	 0	 0	 1	 1	 0	 138	 1	 1.1	 0.9;
	 104	 1	 117.3	 31.28	 0	 0	 1	 1	 0	 138	 1	 1.1	 0.9;
	 105	 1	 0	 0	 0	 0	 1	 1	 0	 138	 1	 1.1	 0.9;
	 106	 1	 8.27	 2.2	 0	 0	 1	 1	 0	 138	 1	 1.1	 0.9;
	 107	 1	 0	 0	 0	 0	 1	 1	 0	 138	 1	 1.1	 0.9;
	 108	 1	 3.69	 0.98	 0	 0	 1	 1	 0	 138	 1	 1.1	 0.9;
	 109	 1	 0	 0	 0	 0	 1	 1	 0	 138	 1	 1.1	 0.9;
	 110	 2	 0	 0	 0	 0	 1	 1	 0	 13.8	 1	 1.1	 0.9;
	 111	 2	 0	 0	 0	 0	 1	 1	 0	 13.8	 1	 1.1	 0.9;
	 112	 1	 76.04	 20.28	 0	 0	 1	 1	 0	 138	 1	 1.1	 0.9;
	 113	 1	 0	 0	 0	 50	 1	 1	 0	 138	 1	 1.1	 0.9;
	 114	 1	 43.83	 11.69	 0	 0	 1	 1	 0	 138	 1	 1.1	 0.9;
	 115	 1	 0	 0	 0	 0	 1	 1	 0	 138	 1	 1.1	 0.9;
	 116	 1	 45.27	 12.07	 0	 0	 1	 1	 0	 138	 1	 1.1	 0.9;
	 117	 1	 0	 0	 0	 0	 1	 1	 0	 138	 1	 1.1	 0.9;
	 118	 1	 103.46	 27.59	 0	 0	 1	 1	 0	 138	 1	 1.1	 0.9;
	 119	 1	 0	 0	 0	 0	 1	 1	 0	 138	 1	 1.1	 0.9;
	 120	 1	 26.02	 6.94	 0	 0	 1	 1	 0	 138	 1	 1.1	 0.9;
	 121	 1	 0	 0	 0	 0	 1	 1	 0	 138	 1	 1.1	 0.9;
	 122	 1	 57.17	 15.25	 0	 0	 1	 1	 0	 138	 1	 1.1	 0.9;
	 123	 1	 0	 0	 0	 0	 1	 1	 0	 345	 1	 1.1	 0.9;
	 124	 1	 0	 0	 0	 0	 1	 1	 0	 138	 1	 1.1	 0.9;
	 125	 1	 0.5	 0.13	 0	 0	 1	 1	 0	 138	 1	 1.1	 0.9;
	 126	 1	 0.83	 0.22	 0	 0	 1	 1	 0	 138	 1	 1.1	 0.9;
	 127	 1	 0	 0	 0	 0	 1	 1	 0	 138	 1	 1.1	 0.9;
	 128	 1	 24.22	 6.46	 0	 0	 1	 1	 0	 138	 1	 1.1	 0.9;
	 129	 1	 0	 0	 0	 0	 1	 1	 0	 138	 1	 1.1	 0.9;
	 130	 1	 86.4	 23.04	 0	 0	 1	 1	 0	 138	 1	 1.1	 0.9;
	 131	 1	 0	 0	 0	 0	 1	 1	 0	 138	 1	 1.1	 0.9;
	 132	 1	 55.73	 14.86	 0	 0	 1	 1	 0	 138	 1	 1.1	 0.9;
	 133	 1	 0	 0	 0	 0	 1	 1	 0	 138	 1	 1.1	 0.9;
	 134	 1	 14.59	 3.89	 0	 0	 1	 1	 0	 138	 1	 1.1	 0.9;
	 135	 1	 0	 0	 0	 0	 1	 1	 0	 138	 1	 1.1	 0.9;
	 136	 2	 0	 0	 0	 0	 1	 1	 0	 13.8	 1	 1.1	 0.9;
	 137	 2	 0	 0	 0	 0	 1	 1	 0	 13.8	 1	 1.1	 0.9;
	 138	 2	 0	 0	 0	 0	 1	 1	 0	 13.8	 1	 1.1	 0.9;
	 139	 1	 30.44	 8.12	 0	 0	 1	 1	 0	 138	 1	 1.1	 0.9;
	 140	 1	 0	 0	 0	 0	 1	 1	 0	 138	 1	 1.1	 0.9;
	 141	 1	 11.45	 3.05	 0	 0	 1	 1	 0	 138	 1	 1.1	 0.9;
	 142	 1	 0	 0	 0	 0	 1	 1	 0	 138	 1	 1.1	 0.9;
	 143	 1	 35.6	 9.49	 0	 0	 1	 1	 0	 138	 1	 1.1	 0.9;
	 144	 1	 0	 0	 0	 0	 1	 1	 0	 138	 1	 1.1	 0.9;
	 145	 1	 90.39	 24.1	 0	 0	 1	 1	 0	 138	 1	 1.1	 0.9;
	 146	 1	 0	 0	 0	 0	 1	 1	 0	 138	 1	 1.1	 0.9;
	 147	 1	 29.95	 7.99	 0	 0	 1	 1	 0	 138	 1	 1.1	 0.9;
	 148	 1	 0	 0	 0	 0	 1	 1	 0	 138	 1	 1.1	 0.9;
	 149	 1	 36.62	 9.77	 0	 0	 1	 1	 0	 138	 1	 1.1	 0.9;
	 150	 1	 0	 0	 0	 0	 1	 1	 0	 345	 1	 1.1	 0.9;
	 151	 1	 0	 0	 0	 0	 1	 1	 0	 138	 1	 1.1	 0.9;
	 152	 2	 0	 0	 0	 0	 1	 1	 0	 13.8	 1	 1.1	 0.9;
	 153	 2	 0	 0	 0	 0	 1	 1	 0	 13.8	 1	 1.1	 0.9;
	 154	 2	 0	 0	 0	 0	 1	 1	 0	 13.8	 1	 1.1	 0.9;
	 155	 2	 0	 0	 0	 0	 1	 1	 0	 13.8	 1	 1.1	 0.9;
	 156	 2	 0	 0	 0	 0	 1	 1	 0	 13.8	 1	 1.1	 0.9;
	 157	 2	 0	 0	 0	 0	 1	 1	 0	 13.8	 1	 1.1	 0.9;
	 158	 2	 0	 0	 0	 0	 1	 1	 0	 13.8	 1	 1.1	 0.9;
	 159	 2	 0	 0	 0	 0	 1	 1	 0	 13.8	 1	 1.1	 0.9;
	 160	 2	 0	 0	 0	 0	 1	 1	 0	 13.8	 1	 1.1	 0.9;
	 161	 1	 39.95	 10.65	 0	 0	 1	 1	 0	 138	 1	 1.1	 0.9;
	 162	 1	 16.77	 4.47	 0	 0	 1	 1	 0	 138	 1	 1.1	 0.9;
	 163	 1	 0	 0	 0	 110	 1	 1	 0	 138	 1	 1.1	 0.9;
	 164	 1	 63.62	 16.96	 0	 0	 1	 1	 0	 138	 1	 1.1	 0.9;
	 165	 1	 0	 0	 0	 0	 1	 1	 0	 345	 1	 1.1	 0.9;
	 166	 1	 0	 0	 0	 0	 1	 1	 0	 138	 1	 1.1	 0.9;
	 167	 2	 0	 0	 0	 0	 1	 1	 0	 13.8	 1	 1.1	 0.9;
	 168	 2	 0	 0	 0	 0	 1	 1	 0	 13.8	 1	 1.1	 0.9;
	 169	 2	 0	 0	 0	 0	 1	 1	 0	 13.8	 1	 1.1	 0.9;
	 170	 2	 0	 0	 0	 0	 1	 1	 0	 13.8	 1	 1.1	 0.9;
	 171	 2	 0	 0	 0	 0	 1	 1	 0	 13.8	 1	 1.1	 0.9;
	 172	 2	 0	 0	 0	 0	 1	 1	 0	 13.8	 1	 1.1	 0.9;
	 173	 2	 0	 0	 0	 0	 1	 1	 0	 13.8	 1	 1.1	 0.9;
	 174	 2	 0	 0	 0	 0	 1	 1	 0	 13.8	 1	 1.1	 0.9;
	 175	 2	 0	 0	 0	 0	 1	 1	 0	 13.8	 1	 1.1	 0.9;
	 176	 2	 0	 0	 0	 0	 1	 1	 0	 13.8	 1	 1.1	 0.9;
	 177	 1	 0	 0	 0	 0	 1	 1	 0	 345	 1	 1.1	 0.9;
	 178	 1	 0	 0	 0	 0	 1	 1	 0	 138	 1	 1.1	 0.9;
	 179	 2	 0	 0	 0	 0	 1	 1	 0	 13.8	 1	 1.1	 0.9;
	 180	 2	 0	 0	 0	 0	 1	 1	 0	 13.8	 1	 1.1	 0.9;
	 181	 2	 0	 0	 0	 0	 1	 1	 0	 13.8	 1	 1.1	 0.9;
	 182	 1	 0	 0	 0	 40	 1	 1	 0	 138	 1	 1.1	 0.9;
	 183	 1	 88.68	 23.65	 0	 0	 1	 1	 0	 138	 1	 1.1	 0.9;
	 184	 1	 0	 0	 0	 0	 1	 1	 0	 138	 1	 1.1	 0.9;
	 185	 1	 1.12	 0.3	 0	 0	 1	 1	 0	 138	 1	 1.1	 0.9;
	 186	 1	 2.21	 0.59	 0	 0	 1	 1	 0	 138	 1	 1.1	 0.9;
	 187	 1	 26.34	 7.02	 0	 0	 1	 1	 0	 138	 1	 1.1	 0.9;
	 188	 1	 91.72	 24.46	 0	 0	 1	 1	 0	 138	 1	 1.1	 0.9;
	 189	 1	 0	 0	 0	 0	 1	 1	 0	 138	 1	 1.1	 0.9;
	 190	 2	 0	 0	 0	 0	 1	 1	 0	 13.8	 1	 1.1	 0.9;
	 191	 1	 0	 0	 0	 0	 1	 1	 0	 345	 1	 1.1	 0.9;
	 192	 1	 12.52	 3.34	 0	 0	 1	 1	 0	 138	 1	 1.1	 0.9;
	 193	 1	 43.34	 11.56	 0	 0	 1	 1	 0	 138	 1	 1.1	 0.9;
	 194	 1	 0.81	 0.22	 0	 0	 1	 1	 0	 138	 1	 1.1	 0.9;
	 195	 1	 3.76	 1	 0	 0	 1	 1	 0	 138	 1	 1.1	 0.9;
	 196	 1	 128.53	 34.28	 0	 0	 1	 1	 0	 138	 1	 1.1	 0.9;
	 197	 1	 42.56	 11.35	 0	 0	 1	 1	 0	 138	 1	 1.1	 0.9;
	 198	 1	 0	 0	 0	 0	 1	 1	 0	 345	 1	 1.1	 0.9;
	 199	 1	 49.71	 13.26	 0	 0	 1	 1	 0	 138	 1	 1.1	 0.9;
	 200	 1	 1	 0.27	 0	 0	 1	 1	 0	 138	 1	 1.1	 0.9;
...
];

mpc_regionR2.gen = [
%	bus         Pg          Qg          Qmax        Qmin        Vg          mBase       status      Pmax        Pmin        Pc1         Pc2         Qc1min      Qc1max      Qc2min      Qc2max      ramp_agc    ramp_10     ramp_30     ramp_q      apf         
	 3	 288.89	 63.56	 163.56	-36.44	 1	 533.34	 1	 444.45	 133.33;
	 4	 577.785	 127.115	 327.12	-72.89	 1	 1066.68	 1	 888.9	 266.67;
	 5	 102.44	 22.54	 58	-12.92	 1	 189.12	 1	 157.6	 47.28;
	 18	 0.845	 0.225	 0.61	-0.16	 1	 1.56	 1	 1.3	 0.39;
	 19	 1.69	 0.445	 1.21	-0.32	 1	 3.12	 1	 2.6	 0.78;
	 44	 0	 0	 62.21	-7.94	 1	 194.4	 0	 162	 48.6;
	 45	 0	 0	 62.21	-7.94	 1	 194.4	 0	 162	 48.6;
	 46	 105.3	 27.135	 62.21	-7.94	 1	 194.4	 1	 162	 48.6;
	 47	 105.3	 27.135	 62.21	-7.94	 1	 194.4	 1	 162	 48.6;
	 65	 125.775	 32.41	 74.3	-9.48	 1	 232.2	 1	 193.5	 58.05;
	 66	 125.775	 32.41	 74.3	-9.48	 1	 232.2	 1	 193.5	 58.05;
	 67	 251.55	 64.825	 148.61	-18.96	 1	 464.4	 1	 387	 116.1;
	 83	 1.885	 0.5	 1.35	-0.35	 1	 3.48	 1	 2.9	 0.87;
	 87	 0	 0	 67.8	-14.79	 1	 159.84	 0	 133.2	 39.96;
	 88	 0	 0	 67.8	-14.79	 1	 159.84	 0	 133.2	 39.96;
	 89	 0	 0	 271.2	-59.14	 1	 639.36	 0	 532.8	 159.84;
	 93	 0	 0	 1.91	-0.5	 1	 4.92	 0	 4.1	 1.23;
	 94	 0	 0	 1.54	-0.4	 1	 3.96	 0	 3.3	 0.99;
	 95	 0	 0	 1.35	-0.35	 1	 3.48	 0	 2.9	 0.87;
	 96	 0	 0	 2.52	-0.66	 1	 6.48	 0	 5.4	 1.62;
	 97	 0.715	 0.19	 0.51	-0.13	 1	 1.32	 1	 1.1	 0.33;
	 110	 0.65	 0.165	 0.38	-0.05	 1	 1.2	 1	 1	 0.3;
	 111	 1.56	 0.4	 0.92	-0.12	 1	 2.88	 1	 2.4	 0.72;
	 136	 0	 0	 0.81	-0.18	 1	 1.92	 0	 1.6	 0.48;
	 137	 0	 0	 5.6	-1.22	 1	 13.2	 0	 11	 3.3;
	 138	 0	 0	 1.63	-0.36	 1	 3.84	 0	 3.2	 0.96;
	 152	 0	 0	 5.09	-1.11	 1	 12	 0	 10	 3;
	 153	 0	 0	 88.23	-19.24	 1	 208	 0	 173.33	 52;
	 154	 0	 0	 88.23	-19.24	 1	 208	 0	 173.33	 52;
	 155	 0	 0	 88.23	-19.24	 1	 208	 0	 173.33	 52;
	 156	 0	 0	 59.25	-12.92	 1	 139.68	 0	 116.4	 34.92;
	 157	 0	 0	 59.25	-12.92	 1	 139.68	 0	 116.4	 34.92;
	 158	 0	 0	 59.25	-12.92	 1	 139.68	 0	 116.4	 34.92;
	 159	 0	 0	 59.25	-12.92	 1	 139.68	 0	 116.4	 34.92;
	 160	 0	 0	 59.25	-12.92	 1	 139.68	 0	 116.4	 34.92;
	 167	 0.65	 0.165	 0.38	-0.05	 1	 1.2	 1	 1	 0.3;
	 168	 2.145	 0.555	 1.27	-0.16	 1	 3.96	 1	 3.3	 0.99;
	 169	 0.78	 0.2	 0.46	-0.06	 1	 1.44	 1	 1.2	 0.36;
	 170	 4.355	 1.12	 2.57	-0.33	 1	 8.04	 1	 6.7	 2.01;
	 171	 2.795	 0.72	 1.65	-0.21	 1	 5.16	 1	 4.3	 1.29;
	 172	 0	 0	 75.65	-9.65	 1	 236.4	 0	 197	 59.1;
	 173	 0	 0	 75.65	-9.65	 1	 236.4	 0	 197	 59.1;
	 174	 128.05	 33	 75.65	-9.65	 1	 236.4	 1	 197	 59.1;
	 175	 128.05	 33	 75.65	-9.65	 1	 236.4	 1	 197	 59.1;
	 176	 128.05	 33	 75.65	-9.65	 1	 236.4	 1	 197	 59.1;
	 179	 0	 0	 54.97	-11.99	 1	 129.6	 0	 108	 32.4;
	 180	 0	 0	 89.07	-19.43	 1	 210	 0	 175	 52.5;
	 181	 0	 0	 1.68	-0.37	 1	 3.96	 0	 3.3	 0.99;
	 190	 0	 0	 3.36	-0.88	 1	 8.64	 0	 7.2	 2.16;
];

mpc_regionR2.branch = [
%	fbus        tbus        r           x           b           rateA       rateB       rateC       ratio       angle       status      angmin      angmax      
	 2	 1	 0.000208	 0.01122	 0	 682	 682	 682	 1	 0	 1	-30	 30;
	 3	 1	 0.000326	 0.01202	 0	 596	 596	 596	 1	 0	 1	-30	 30;
	 4	 1	 0.000279	 0.01438	 0	 674	 674	 674	 1	 0	 1	-30	 30;
	 4	 1	 0.000354	 0.01438	 0	 674	 674	 674	 1	 0	 1	-30	 30;
	 5	 1	 0.001417	 0.05115	 0	 340	 340	 340	 1	 0	 1	-30	 30;
	 150	 1	 0.000317	 0.004547	 0.08136	 1493.89	 1493.89	 1493.89	 0	 0	 1	-30	 30;
	 150	 1	 0.00032	 0.00455	 0.08136	 1493.9	 1493.9	 1493.9	 0	 0	 1	-30	 30;
	 2	 29	 0.004799	 0.046085	 0.01488	 320.29	 320.29	 320.29	 0	 0	 1	-30	 30;
	 2	 82	 0.010894	 0.104607	 0.03377	 320.29	 320.29	 320.29	 0	 0	 1	-30	 30;
	 140	 2	 0.001918	 0.018416	 0.00594	 320.29	 320.29	 320.29	 0	 0	 1	-30	 30;
	 2	 142	 0.001854	 0.01701	 0.00603	 320.29	 320.29	 320.29	 0	 0	 1	-30	 30;
	 2	 200	 0.009225	 0.084621	 0.02999	 320.29	 320.29	 320.29	 0	 0	 1	-30	 30;
	 7	 6	 0.00033	 0.01764	 0	 626	 626	 626	 1	 0	 1	-30	 30;
	 56	 6	 0.000182	 0.002607	 0.04665	 1493.89	 1493.89	 1493.89	 0	 0	 1	-30	 30;
	 6	 150	 0.001642	 0.023851	 0.41623	 1493.89	 1493.89	 1493.89	 0	 0	 1	-30	 30;
	 6	 191	 0.000947	 0.012532	 0.26411	 1493.89	 1493.89	 1493.89	 0	 0	 1	-30	 30;
	 6	 198	 0.000532	 0.007041	 0.14837	 1493.89	 1493.89	 1493.89	 0	 0	 1	-30	 30;
	 8	 7	 0.000613	 0.003629	 0	 3.56	 3.56	 3.56	 0	 0	 1	-30	 30;
	 9	 7	 0.000563	 0.003729	 0	 29.46	 29.46	 29.46	 0	 0	 1	-30	 30;
	 76	 7	 0.002218	 0.020344	 0.00721	 320.29	 320.29	 320.29	 0	 0	 1	-30	 30;
	 7	 135	 0.002365	 0.022714	 0.00733	 320.29	 320.29	 320.29	 0	 0	 1	-30	 30;
	 11	 10	 0.000687	 0.003963	 0	 108.61	 108.61	 108.61	 0	 0	 1	-30	 30;
	 10	 146	 0.00337	 0.030912	 0.01095	 320.29	 320.29	 320.29	 0	 0	 1	-30	 30;
	 13	 12	 0.0007	 0.02531	 0	 428	 428	 428	 1	 0	 1	-30	 30;
	 12	 123	 0.000403	 0.005786	 0.10355	 1493.89	 1493.89	 1493.89	 0	 0	 1	-30	 30;
	 12	 165	 0.000521	 0.006898	 0.14538	 1493.89	 1493.89	 1493.89	 0	 0	 1	-30	 30;
	 14	 13	 0.000631	 0.003923	 0	 97.47	 97.47	 97.47	 0	 0	 1	-30	 30;
	 13	 50	 0.002909	 0.026681	 0.00946	 320.29	 320.29	 320.29	 0	 0	 1	-30	 30;
	 16	 15	 0.000602	 0.003454	 0	 63	 63	 63	 0	 0	 1	-30	 30;
	 15	 61	 0.006611	 0.063482	 0.02049	 320.29	 320.29	 320.29	 0	 0	 1	-30	 30;
	 84	 15	 0.003134	 0.030093	 0.00971	 320.29	 320.29	 320.29	 0	 0	 1	-30	 30;
	 18	 17	 0.01331	 0.27853	 0	 57	 57	 57	 1	 0	 1	-30	 30;
	 19	 17	 0.00715	 0.16356	 0	 70	 70	 70	 1	 0	 1	-30	 30;
	 20	 17	 0.000658	 0.003672	 0	 0.56	 0.56	 0.56	 0	 0	 1	-30	 30;
	 21	 17	 0.00062	 0.003342	 0	 37.95	 37.95	 37.95	 0	 0	 1	-30	 30;
	 133	 17	 0.0045	 0.041283	 0.01463	 320.29	 320.29	 320.29	 0	 0	 1	-30	 30;
	 23	 22	 0.00012	 0.01762	 0	 675	 675	 675	 1	 0	 1	-30	 30;
	 23	 22	 0.00012	 0.01762	 0	 675	 675	 675	 1	 0	 1	-30	 30;
	 22	 42	 0.001682	 0.024427	 0.42627	 1493.89	 1493.89	 1493.89	 0	 0	 1	-30	 30;
	 177	 22	 0.000601	 0.008726	 0.15227	 1493.89	 1493.89	 1493.89	 0	 0	 1	-30	 30;
	 24	 23	 0.00062	 0.003848	 0	 252.93	 252.93	 252.93	 0	 0	 1	-30	 30;
	 23	 92	 0.004532	 0.04352	 0.01405	 320.29	 320.29	 320.29	 0	 0	 1	-30	 30;
	 115	 23	 0.002019	 0.019385	 0.00626	 320.29	 320.29	 320.29	 0	 0	 1	-30	 30;
	 115	 23	 0.00202	 0.01939	 0.00626	 320.3	 320.3	 320.3	 0	 0	 1	-30	 30;
	 26	 25	 0.000529	 0.003518	 0	 0.32	 0.32	 0.32	 0	 0	 1	-30	 30;
	 25	 50	 0.001985	 0.018208	 0.00645	 320.29	 320.29	 320.29	 0	 0	 1	-30	 30;
	 193	 25	 0.002011	 0.019314	 0.00623	 320.29	 320.29	 320.29	 0	 0	 1	-30	 30;
	 28	 27	 0.000622	 0.003279	 0	 0.52	 0.52	 0.52	 0	 0	 1	-30	 30;
	 27	 119	 0.005432	 0.049829	 0.01766	 320.29	 320.29	 320.29	 0	 0	 1	-30	 30;
	 27	 151	 0.002354	 0.022609	 0.0073	 320.29	 320.29	 320.29	 0	 0	 1	-30	 30;
	 30	 29	 0.000572	 0.003617	 0	 104.24	 104.24	 104.24	 0	 0	 1	-30	 30;
	 29	 52	 0.00504	 0.048401	 0.01562	 320.29	 320.29	 320.29	 0	 0	 1	-30	 30;
	 32	 31	 0.000563	 0.003253	 0	 56.18	 56.18	 56.18	 0	 0	 1	-30	 30;
	 31	 68	 0.002111	 0.020268	 0.00654	 320.29	 320.29	 320.29	 0	 0	 1	-30	 30;
	 31	 142	 0.004094	 0.039316	 0.01269	 320.29	 320.29	 320.29	 0	 0	 1	-30	 30;
	 34	 33	 0.000569	 0.003986	 0	 66.43	 66.43	 66.43	 0	 0	 1	-30	 30;
	 70	 33	 0.002992	 0.028734	 0.00928	 320.29	 320.29	 320.29	 0	 0	 1	-30	 30;
	 133	 33	 0.002676	 0.024552	 0.0087	 320.29	 320.29	 320.29	 0	 0	 1	-30	 30;
	 36	 35	 0.000644	 0.00362	 0	 22.69	 22.69	 22.69	 0	 0	 1	-30	 30;
	 37	 35	 0.000699	 0.003294	 0	 1.37	 1.37	 1.37	 0	 0	 1	-30	 30;
	 35	 192	 0.002689	 0.02582	 0.00834	 320.29	 320.29	 320.29	 0	 0	 1	-30	 30;
	 199	 35	 0.003318	 0.031864	 0.01029	 320.29	 320.29	 320.29	 0	 0	 1	-30	 30;
	 39	 38	 0.000658	 0.00301	 0	 62.91	 62.91	 62.91	 0	 0	 1	-30	 30;
	 38	 199	 0.002033	 0.019521	 0.0063	 320.29	 320.29	 320.29	 0	 0	 1	-30	 30;
	 38	 205	 0.003611	 0.034672	 0.01119	 320.29	 320.29	 320.29	 0	 0	 1	-30	 30;
	 41	 40	 0.000556	 0.003059	 0	 46.58	 46.58	 46.58	 0	 0	 1	-30	 30;
	 40	 48	 0.00235	 0.021554	 0.00764	 320.29	 320.29	 320.29	 0	 0	 1	-30	 30;
	 92	 40	 0.001494	 0.01435	 0.00463	 320.29	 320.29	 320.29	 0	 0	 1	-30	 30;
	 43	 42	 0.0002	 0.01438	 0	 488	 488	 488	 1	 0	 1	-30	 30;
	 44	 42	 0.00028	 0.04064	 0	 346	 346	 346	 1	 0	 1	-30	 30;
	 45	 42	 0.00015	 0.02189	 0	 352	 352	 352	 1	 0	 1	-30	 30;
	 46	 42	 0.00038	 0.04792	 0	 378	 378	 378	 1	 0	 1	-30	 30;
	 47	 42	 0.00016	 0.01585	 0	 391	 391	 391	 1	 0	 1	-30	 30;
	 63	 42	 0.000216	 0.003138	 0.05475	 1493.89	 1493.89	 1493.89	 0	 0	 1	-30	 30;
	 43	 99	 0.00204	 0.018709	 0.00663	 320.29	 320.29	 320.29	 0	 0	 1	-30	 30;
	 43	 142	 0.007693	 0.070568	 0.02501	 320.29	 320.29	 320.29	 0	 0	 1	-30	 30;
	 49	 48	 0.000698	 0.003221	 0	 165.98	 165.98	 165.98	 0	 0	 1	-30	 30;
	 109	 48	 0.003063	 0.029412	 0.00949	 320.29	 320.29	 320.29	 0	 0	 1	-30	 30;
	 117	 48	 0.001878	 0.017231	 0.00611	 320.29	 320.29	 320.29	 0	 0	 1	-30	 30;
	 51	 50	 0.000673	 0.003615	 0	 41.59	 41.59	 41.59	 0	 0	 1	-30	 30;
	 50	 124	 0.002227	 0.021386	 0.0069	 320.29	 320.29	 320.29	 0	 0	 1	-30	 30;
	 53	 52	 0.000515	 0.003083	 0	 66.01	 66.01	 66.01	 0	 0	 1	-30	 30;
	 52	 78	 0.00644	 0.059077	 0.02094	 320.29	 320.29	 320.29	 0	 0	 1	-30	 30;
	 52	 142	 0.006155	 0.056462	 0.02001	 320.29	 320.29	 320.29	 0	 0	 1	-30	 30;
	 200	 52	 0.004755	 0.045657	 0.01474	 320.29	 320.29	 320.29	 0	 0	 1	-30	 30;
	 55	 54	 0.0006	 0.003182	 0	 0.36	 0.36	 0.36	 0	 0	 1	-30	 30;
	 54	 144	 0.002676	 0.025697	 0.0083	 320.29	 320.29	 320.29	 0	 0	 1	-30	 30;
	 166	 54	 0.001468	 0.014094	 0.00455	 320.29	 320.29	 320.29	 0	 0	 1	-30	 30;
	 57	 56	 0.000342	 0.0203	 0	 570	 570	 570	 1	 0	 1	-30	 30;
	 165	 56	 0.000454	 0.006011	 0.12668	 1493.89	 1493.89	 1493.89	 0	 0	 1	-30	 30;
	 58	 57	 0.000529	 0.003112	 0	 130.11	 130.11	 130.11	 0	 0	 1	-30	 30;
	 84	 57	 0.002155	 0.02069	 0.00668	 320.29	 320.29	 320.29	 0	 0	 1	-30	 30;
	 60	 59	 0.000533	 0.003005	 0	 89.97	 89.97	 89.97	 0	 0	 1	-30	 30;
	 59	 166	 0.002119	 0.020352	 0.00657	 320.29	 320.29	 320.29	 0	 0	 1	-30	 30;
	 59	 204	 0.008007	 0.07345	 0.02603	 320.29	 320.29	 320.29	 0	 0	 1	-30	 30;
	 62	 61	 0.000597	 0.003579	 0	 164.26	 164.26	 164.26	 0	 0	 1	-30	 30;
	 204	 61	 0.001861	 0.017075	 0.00605	 320.29	 320.29	 320.29	 0	 0	 1	-30	 30;
	 64	 63	 0.000183	 0.00871	 0	 606	 606	 606	 1	 0	 1	-30	 30;
	 65	 63	 0.000463	 0.02157	 0	 411	 411	 411	 1	 0	 1	-30	 30;
	 66	 63	 0.00029	 0.03549	 0	 445	 445	 445	 1	 0	 1	-30	 30;
	 67	 63	 0.00035	 0.02558	 0	 543	 543	 543	 1	 0	 1	-30	 30;
	 63	 150	 0.000718	 0.010423	 0.18188	 1493.89	 1493.89	 1493.89	 0	 0	 1	-30	 30;
	 64	 80	 0.004845	 0.044445	 0.01575	 320.29	 320.29	 320.29	 0	 0	 1	-30	 30;
	 99	 64	 0.00199	 0.01825	 0.00647	 320.29	 320.29	 320.29	 0	 0	 1	-30	 30;
	 64	 107	 0.002113	 0.020294	 0.00655	 320.29	 320.29	 320.29	 0	 0	 1	-30	 30;
	 69	 68	 0.000513	 0.003774	 0	 20.92	 20.92	 20.92	 0	 0	 1	-30	 30;
	 68	 78	 0.004631	 0.042483	 0.01506	 320.29	 320.29	 320.29	 0	 0	 1	-30	 30;
	 71	 70	 0.000631	 0.003715	 0	 145.73	 145.73	 145.73	 0	 0	 1	-30	 30;
	 70	 203	 0.002751	 0.026421	 0.00853	 320.29	 320.29	 320.29	 0	 0	 1	-30	 30;
	 73	 72	 0.000562	 0.003066	 0	 76.88	 76.88	 76.88	 0	 0	 1	-30	 30;
	 182	 72	 0.003074	 0.028201	 0.00999	 320.29	 320.29	 320.29	 0	 0	 1	-30	 30;
	 72	 194	 0.002016	 0.018496	 0.00655	 320.29	 320.29	 320.29	 0	 0	 1	-30	 30;
	 75	 74	 0.000514	 0.003601	 0	 141.36	 141.36	 141.36	 0	 0	 1	-30	 30;
	 115	 74	 0.00286	 0.027459	 0.00886	 320.29	 320.29	 320.29	 0	 0	 1	-30	 30;
	 131	 74	 0.002554	 0.024525	 0.00792	 320.29	 320.29	 320.29	 0	 0	 1	-30	 30;
	 77	 76	 0.000679	 0.003783	 0	 54.3	 54.3	 54.3	 0	 0	 1	-30	 30;
	 204	 76	 0.003712	 0.035641	 0.01151	 320.29	 320.29	 320.29	 0	 0	 1	-30	 30;
	 79	 78	 0.000667	 0.003347	 0	 8.92	 8.92	 8.92	 0	 0	 1	-30	 30;
	 81	 80	 0.00059	 0.003589	 0	 77.87	 77.87	 77.87	 0	 0	 1	-30	 30;
	 80	 195	 0.004892	 0.046972	 0.01516	 320.29	 320.29	 320.29	 0	 0	 1	-30	 30;
	 80	 201	 0.006513	 0.059749	 0.02117	 320.29	 320.29	 320.29	 0	 0	 1	-30	 30;
	 83	 82	 0.00368	 0.18877	 0	 65	 65	 65	 1	 0	 1	-30	 30;
	 105	 82	 0.002749	 0.026397	 0.00852	 320.29	 320.29	 320.29	 0	 0	 1	-30	 30;
	 85	 84	 0.000513	 0.003619	 0	 64.09	 64.09	 64.09	 0	 0	 1	-30	 30;
	 87	 86	 0.001314	 0.05441	 0	 336	 336	 336	 1	 0	 1	-30	 30;
	 88	 86	 0.001385	 0.05427	 0	 333	 333	 333	 1	 0	 1	-30	 30;
	 89	 86	 0.00041	 0.02016	 0	 628	 628	 628	 1	 0	 1	-30	 30;
	 89	 86	 0.000393	 0.02016	 0	 628	 628	 628	 1	 0	 1	-30	 30;
	 86	 123	 0.000921	 0.01337	 0.23332	 1493.89	 1493.89	 1493.89	 0	 0	 1	-30	 30;
	 165	 86	 0.001101	 0.014563	 0.30689	 1493.89	 1493.89	 1493.89	 0	 0	 1	-30	 30;
	 86	 198	 0.001086	 0.014374	 0.30292	 1493.89	 1493.89	 1493.89	 0	 0	 1	-30	 30;
	 91	 90	 0.000661	 0.003863	 0	 171.55	 171.55	 171.55	 0	 0	 1	-30	 30;
	 90	 135	 0.004529	 0.041546	 0.01472	 320.29	 320.29	 320.29	 0	 0	 1	-30	 30;
	 163	 90	 0.004262	 0.04093	 0.01321	 320.29	 320.29	 320.29	 0	 0	 1	-30	 30;
	 93	 92	 0.00422	 0.13453	 0	 134	 134	 134	 1	 0	 1	-30	 30;
	 94	 92	 0.00273	 0.10598	 0	 75	 75	 75	 1	 0	 1	-30	 30;
	 95	 92	 0.00659	 0.18871	 0	 65	 65	 65	 1	 0	 1	-30	 30;
	 96	 92	 0.00255	 0.08097	 0	 142	 142	 142	 1	 0	 1	-30	 30;
	 97	 92	 0.00935	 0.25929	 0	 52	 52	 52	 1	 0	 1	-30	 30;
	 98	 92	 0.000652	 0.003579	 0	 11.94	 11.94	 11.94	 0	 0	 1	-30	 30;
	 92	 129	 0.00255	 0.024489	 0.00791	 320.29	 320.29	 320.29	 0	 0	 1	-30	 30;
	 92	 163	 0.005333	 0.048916	 0.01733	 320.29	 320.29	 320.29	 0	 0	 1	-30	 30;
	 100	 99	 0.000574	 0.003316	 0	 31.44	 31.44	 31.44	 0	 0	 1	-30	 30;
	 102	 101	 0.000691	 0.003081	 0	 24.56	 24.56	 24.56	 0	 0	 1	-30	 30;
	 101	 127	 0.005965	 0.057279	 0.01849	 320.29	 320.29	 320.29	 0	 0	 1	-30	 30;
	 101	 195	 0.003204	 0.030766	 0.00993	 320.29	 320.29	 320.29	 0	 0	 1	-30	 30;
	 104	 103	 0.000539	 0.003617	 0	 203.73	 203.73	 203.73	 0	 0	 1	-30	 30;
	 113	 103	 0.002251	 0.021614	 0.00698	 320.29	 320.29	 320.29	 0	 0	 1	-30	 30;
	 103	 119	 0.004967	 0.04556	 0.01615	 320.29	 320.29	 320.29	 0	 0	 1	-30	 30;
	 103	 148	 0.00383	 0.03678	 0.01187	 320.29	 320.29	 320.29	 0	 0	 1	-30	 30;
	 106	 105	 0.000667	 0.003266	 0	 13.41	 13.41	 13.41	 0	 0	 1	-30	 30;
	 105	 203	 0.003238	 0.031094	 0.01004	 320.29	 320.29	 320.29	 0	 0	 1	-30	 30;
	 108	 107	 0.000543	 0.003807	 0	 5.93	 5.93	 5.93	 0	 0	 1	-30	 30;
	 195	 107	 0.00577	 0.055406	 0.01789	 320.29	 320.29	 320.29	 0	 0	 1	-30	 30;
	 110	 109	 0.02066	 0.53593	 0	 28	 28	 28	 1	 0	 1	-30	 30;
	 111	 109	 0.00522	 0.24992	 0	 63	 63	 63	 1	 0	 1	-30	 30;
	 112	 109	 0.000547	 0.003467	 0	 122.19	 122.19	 122.19	 0	 0	 1	-30	 30;
	 114	 113	 0.000617	 0.003587	 0	 60.45	 60.45	 60.45	 0	 0	 1	-30	 30;
	 133	 113	 0.002931	 0.026886	 0.00953	 320.29	 320.29	 320.29	 0	 0	 1	-30	 30;
	 116	 115	 0.000658	 0.003109	 0	 75.55	 75.55	 75.55	 0	 0	 1	-30	 30;
	 117	 115	 0.001572	 0.014419	 0.00511	 320.29	 320.29	 320.29	 0	 0	 1	-30	 30;
	 118	 117	 0.000537	 0.003712	 0	 146.36	 146.36	 146.36	 0	 0	 1	-30	 30;
	 120	 119	 0.000554	 0.003034	 0	 40.66	 40.66	 40.66	 0	 0	 1	-30	 30;
	 122	 121	 0.00057	 0.003882	 0	 77.39	 77.39	 77.39	 0	 0	 1	-30	 30;
	 124	 121	 0.001518	 0.014574	 0.0047	 320.29	 320.29	 320.29	 0	 0	 1	-30	 30;
	 184	 121	 0.002073	 0.019909	 0.00643	 320.29	 320.29	 320.29	 0	 0	 1	-30	 30;
	 124	 123	 0.00074	 0.02644	 0	 508	 508	 508	 1	 0	 1	-30	 30;
	 123	 198	 0.000258	 0.003415	 0.07196	 1493.89	 1493.89	 1493.89	 0	 0	 1	-30	 30;
	 125	 124	 0.000662	 0.003196	 0	 0.85	 0.85	 0.85	 0	 0	 1	-30	 30;
	 126	 124	 0.000627	 0.003552	 0	 1.26	 1.26	 1.26	 0	 0	 1	-30	 30;
	 128	 127	 0.000618	 0.003847	 0	 43.31	 43.31	 43.31	 0	 0	 1	-30	 30;
	 187	 127	 0.003698	 0.035512	 0.01146	 320.29	 320.29	 320.29	 0	 0	 1	-30	 30;
	 130	 129	 0.000579	 0.003119	 0	 138.46	 138.46	 138.46	 0	 0	 1	-30	 30;
	 129	 163	 0.005551	 0.050922	 0.01805	 320.29	 320.29	 320.29	 0	 0	 1	-30	 30;
	 132	 131	 0.000552	 0.003425	 0	 84.77	 84.77	 84.77	 0	 0	 1	-30	 30;
	 131	 146	 0.002848	 0.027352	 0.00883	 320.29	 320.29	 320.29	 0	 0	 1	-30	 30;
	 134	 133	 0.00067	 0.003506	 0	 25	 25	 25	 0	 0	 1	-30	 30;
	 136	 135	 0.01388	 0.33724	 0	 52	 52	 52	 1	 0	 1	-30	 30;
	 137	 135	 0.00354	 0.11798	 0	 162	 162	 162	 1	 0	 1	-30	 30;
	 138	 135	 0.00224	 0.11593	 0	 75	 75	 75	 1	 0	 1	-30	 30;
	 139	 135	 0.000513	 0.003558	 0	 40.25	 40.25	 40.25	 0	 0	 1	-30	 30;
	 135	 163	 0.008124	 0.078008	 0.02518	 320.29	 320.29	 320.29	 0	 0	 1	-30	 30;
	 141	 140	 0.000517	 0.003214	 0	 17.62	 17.62	 17.62	 0	 0	 1	-30	 30;
	 140	 188	 0.006326	 0.058028	 0.02056	 320.29	 320.29	 320.29	 0	 0	 1	-30	 30;
	 140	 195	 0.008321	 0.076331	 0.02705	 320.29	 320.29	 320.29	 0	 0	 1	-30	 30;
	 143	 142	 0.000569	 0.003063	 0	 62.18	 62.18	 62.18	 0	 0	 1	-30	 30;
	 145	 144	 0.000502	 0.003355	 0	 162.43	 162.43	 162.43	 0	 0	 1	-30	 30;
	 144	 166	 0.002745	 0.026362	 0.00851	 320.29	 320.29	 320.29	 0	 0	 1	-30	 30;
	 144	 187	 0.002246	 0.021565	 0.00696	 320.29	 320.29	 320.29	 0	 0	 1	-30	 30;
	 144	 196	 0.004909	 0.045034	 0.01596	 320.29	 320.29	 320.29	 0	 0	 1	-30	 30;
	 144	 205	 0.003326	 0.031936	 0.01031	 320.29	 320.29	 320.29	 0	 0	 1	-30	 30;
	 147	 146	 0.000541	 0.003573	 0	 44.49	 44.49	 44.49	 0	 0	 1	-30	 30;
	 149	 148	 0.000568	 0.003148	 0	 48.14	 48.14	 48.14	 0	 0	 1	-30	 30;
	 178	 148	 0.002936	 0.028195	 0.0091	 320.29	 320.29	 320.29	 0	 0	 1	-30	 30;
	 151	 150	 0.00016	 0.01653	 0	 658	 658	 658	 1	 0	 1	-30	 30;
	 151	 150	 0.00016	 0.01653	 0	 658	 658	 658	 1	 0	 1	-30	 30;
	 152	 150	 0.00036	 0.04243	 0	 255	 255	 255	 1	 0	 1	-30	 30;
	 153	 150	 0.00043	 0.03576	 0	 374	 374	 374	 1	 0	 1	-30	 30;
	 154	 150	 0.00021	 0.02728	 0	 389	 389	 389	 1	 0	 1	-30	 30;
	 155	 150	 0.00023	 0.02451	 0	 399	 399	 399	 1	 0	 1	-30	 30;
...
];

mpc_regionR2.gencost = [
%	2           startup     shutdown    n           c(n-1)...c0 
	 2	 0	 0	 3	 0	 5.867	 1266.47;
	 2	 0	 0	 3	 0	 8.412	 1319.13;
	 2	 0	 0	 3	 0	 9.275	 1076.21;
	 2	 0	 0	 3	 0.002	 19	 236.03;
	 2	 0	 0	 3	 0.002	 19	 236.07;
	 2	 0	 0	 3	 0	 0	 0;
	 2	 0	 0	 3	 0	 0	 0;
	 2	 0	 0	 3	 0	 0	 0;
	 2	 0	 0	 3	 0	 0	 0;
	 2	 0	 0	 3	 0	 0	 0;
	 2	 0	 0	 3	 0	 0	 0;
	 2	 0	 0	 3	 0	 0	 0;
	 2	 0	 0	 3	 0.002	 19	 236.08;
	 2	 0	 0	 3	 0.002	 24.033	 799.8;
	 2	 0	 0	 3	 0.002	 24.033	 799.8;
	 2	 0	 0	 3	 0.002	 26.742	 2763.98;
	 2	 0	 0	 3	 0.002	 19	 236.11;
	 2	 0	 0	 3	 0.002	 19	 236.09;
	 2	 0	 0	 3	 0.002	 19	 236.08;
	 2	 0	 0	 3	 0.002	 19	 236.14;
	 2	 0	 0	 3	 0.002	 19	 236.03;
	 2	 0	 0	 3	 0	 0	 0;
	 2	 0	 0	 3	 0	 0	 0;
	 2	 0	 0	 3	 0.002	 23.141	 602.4;
	 2	 0	 0	 3	 0.002	 23.205	 616.5;
	 2	 0	 0	 3	 0.002	 23.152	 604.8;
	 2	 0	 0	 3	 0.002	 23.198	 615;
	 2	 0	 0	 3	 0.002	 24.305	 859.99;
	 2	 0	 0	 3	 0.002	 24.305	 859.99;
	 2	 0	 0	 3	 0.002	 24.305	 859.99;
	 2	 0	 0	 3	 0.002	 23.919	 774.6;
	 2	 0	 0	 3	 0.002	 23.919	 774.6;
	 2	 0	 0	 3	 0.002	 23.919	 774.6;
	 2	 0	 0	 3	 0.002	 23.919	 774.6;
	 2	 0	 0	 3	 0.002	 23.919	 774.6;
	 2	 0	 0	 3	 0	 0	 0;
	 2	 0	 0	 3	 0	 0	 0;
	 2	 0	 0	 3	 0	 0	 0;
	 2	 0	 0	 3	 0	 0	 0;
	 2	 0	 0	 3	 0	 0	 0;
	 2	 0	 0	 3	 0	 0	 0;
	 2	 0	 0	 3	 0	 0	 0;
	 2	 0	 0	 3	 0	 0	 0;
	 2	 0	 0	 3	 0	 0	 0;
	 2	 0	 0	 3	 0	 0	 0;
	 2	 0	 0	 3	 0.002	 23.862	 762;
	 2	 0	 0	 3	 0.002	 24.316	 862.5;
	 2	 0	 0	 3	 0.002	 23.152	 604.95;
	 2	 0	 0	 3	 0.002	 19	 236.19;
];


% -------------------- mpc_regionR3 --------------------

mpc_regionR3.version = '2';
mpc_regionR3.baseMVA = 100.0000;
mpc_regionR3.bus = [
%	bus_i       type        Pd          Qd          Gs          Bs          area        Vm          Va          baseKV      zone        Vmax        Vmin        
	 1	 1	 0	 0	 0	 0	 1	 1	 0	 138	 1	 1.1	 0.9;
	 2	 1	 3.21	 0.86	 0	 0	 1	 1	 0	 138	 1	 1.1	 0.9;
	 3	 1	 0	 0	 0	 0	 1	 1	 0	 138	 1	 1.1	 0.9;
	 4	 1	 0.13	 0.03	 0	 0	 1	 1	 0	 138	 1	 1.1	 0.9;
	 5	 1	 0	 0	 0	 0	 1	 1	 0	 138	 1	 1.1	 0.9;
	 6	 1	 16.96	 4.52	 0	 0	 1	 1	 0	 138	 1	 1.1	 0.9;
	 7	 1	 0	 0	 0	 0	 1	 1	 0	 138	 1	 1.1	 0.9;
	 8	 1	 6.95	 1.85	 0	 0	 1	 1	 0	 138	 1	 1.1	 0.9;
	 9	 1	 0	 0	 0	 0	 1	 1	 0	 138	 1	 1.1	 0.9;
	 10	 1	 5.25	 1.4	 0	 0	 1	 1	 0	 138	 1	 1.1	 0.9;
	 11	 1	 0	 0	 0	 0	 1	 1	 0	 138	 2	 1.1	 0.9;
	 12	 1	 5.21	 1.39	 0	 0	 1	 1	 0	 138	 2	 1.1	 0.9;
	 13	 1	 0	 0	 0	 50	 1	 1	 0	 138	 1	 1.1	 0.9;
	 14	 1	 62.29	 16.61	 0	 0	 1	 1	 0	 138	 1	 1.1	 0.9;
	 15	 1	 0	 0	 0	 50	 1	 1	 0	 138	 1	 1.1	 0.9;
	 16	 1	 161.34	 43.02	 0	 0	 1	 1	 0	 138	 1	 1.1	 0.9;
	 17	 1	 0	 0	 0	 0	 1	 1	 0	 138	 1	 1.1	 0.9;
	 18	 2	 0	 0	 0	 0	 1	 1	 0	 13.8	 1	 1.1	 0.9;
	 19	 2	 0	 0	 0	 0	 1	 1	 0	 13.8	 1	 1.1	 0.9;
	 20	 1	 0	 0	 0	 0	 1	 1	 0	 138	 2	 1.1	 0.9;
	 21	 1	 57.42	 15.31	 0	 0	 1	 1	 0	 138	 2	 1.1	 0.9;
	 22	 1	 0	 0	 0	 0	 1	 1	 0	 345	 1	 1.1	 0.9;
	 23	 1	 0	 0	 0	 0	 1	 1	 0	 138	 1	 1.1	 0.9;
	 24	 1	 8.78	 2.34	 0	 0	 1	 1	 0	 138	 1	 1.1	 0.9;
	 25	 1	 6.81	 1.82	 0	 0	 1	 1	 0	 138	 1	 1.1	 0.9;
	 26	 1	 0	 0	 0	 0	 1	 1	 0	 138	 1	 1.1	 0.9;
	 27	 1	 30.18	 8.05	 0	 0	 1	 1	 0	 138	 1	 1.1	 0.9;
	 28	 1	 0	 0	 0	 0	 1	 1	 0	 345	 1	 1.1	 0.9;
	 29	 1	 0	 0	 0	 0	 1	 1	 0	 138	 1	 1.1	 0.9;
	 30	 2	 0	 0	 0	 0	 1	 1	 0	 13.8	 1	 1.1	 0.9;
	 31	 2	 0	 0	 0	 0	 1	 1	 0	 13.8	 1	 1.1	 0.9;
	 32	 2	 0	 0	 0	 0	 1	 1	 0	 13.8	 1	 1.1	 0.9;
	 33	 2	 0	 0	 0	 0	 1	 1	 0	 13.8	 1	 1.1	 0.9;
	 34	 1	 0	 0	 0	 0	 1	 1	 0	 138	 1	 1.1	 0.9;
	 35	 1	 0	 0	 0	 0	 1	 1	 0	 138	 2	 1.1	 0.9;
	 36	 1	 6.8	 1.81	 0	 0	 1	 1	 0	 138	 2	 1.1	 0.9;
	 37	 1	 0	 0	 0	 0	 1	 1	 0	 138	 1	 1.1	 0.9;
	 38	 2	 0	 0	 0	 0	 1	 1	 0	 13.8	 1	 1.1	 0.9;
	 39	 1	 0	 0	 0	 0	 1	 1	 0	 138	 1	 1.1	 0.9;
	 40	 1	 7.79	 2.08	 0	 0	 1	 1	 0	 138	 1	 1.1	 0.9;
	 41	 1	 0	 0	 0	 40	 1	 1	 0	 138	 1	 1.1	 0.9;
	 42	 2	 0	 0	 0	 0	 1	 1	 0	 13.8	 1	 1.1	 0.9;
	 43	 2	 0	 0	 0	 0	 1	 1	 0	 13.8	 1	 1.1	 0.9;
	 44	 1	 86.76	 23.14	 0	 0	 1	 1	 0	 138	 1	 1.1	 0.9;
	 45	 1	 0	 0	 0	 0	 1	 1	 0	 138	 1	 1.1	 0.9;
	 46	 1	 0.43	 0.11	 0	 0	 1	 1	 0	 138	 1	 1.1	 0.9;
	 47	 1	 0	 0	 0	 0	 1	 1	 0	 138	 1	 1.1	 0.9;
	 48	 1	 3.75	 1	 0	 0	 1	 1	 0	 138	 1	 1.1	 0.9;
	 49	 1	 0	 0	 0	 0	 1	 1	 0	 138	 1	 1.1	 0.9;
	 50	 2	 0	 0	 0	 0	 1	 1	 0	 13.8	 1	 1.1	 0.9;
	 51	 1	 0	 0	 0	 0	 1	 1	 0	 138	 1	 1.1	 0.9;
	 52	 1	 5.67	 1.51	 0	 0	 1	 1	 0	 138	 1	 1.1	 0.9;
	 53	 1	 0	 0	 0	 0	 1	 1	 0	 138	 1	 1.1	 0.9;
	 54	 1	 75.1	 20.03	 0	 0	 1	 1	 0	 138	 1	 1.1	 0.9;
	 55	 1	 0	 0	 0	 0	 1	 1	 0	 138	 1	 1.1	 0.9;
	 56	 1	 13.01	 3.47	 0	 0	 1	 1	 0	 138	 1	 1.1	 0.9;
	 57	 1	 0	 0	 0	 0	 1	 1	 0	 138	 1	 1.1	 0.9;
	 58	 1	 88.35	 23.56	 0	 0	 1	 1	 0	 138	 1	 1.1	 0.9;
	 59	 1	 0	 0	 0	 0	 1	 1	 0	 138	 1	 1.1	 0.9;
	 60	 1	 5.25	 1.4	 0	 0	 1	 1	 0	 138	 1	 1.1	 0.9;
	 61	 1	 0	 0	 0	 0	 1	 1	 0	 138	 1	 1.1	 0.9;
	 62	 1	 157.1	 41.89	 0	 0	 1	 1	 0	 138	 1	 1.1	 0.9;
	 63	 1	 0	 0	 0	 0	 1	 1	 0	 138	 1	 1.1	 0.9;
	 64	 1	 57.56	 15.35	 0	 0	 1	 1	 0	 138	 1	 1.1	 0.9;
	 65	 1	 11.16	 2.98	 0	 0	 1	 1	 0	 138	 1	 1.1	 0.9;
	 66	 1	 74.47	 19.86	 0	 0	 1	 1	 0	 138	 1	 1.1	 0.9;
	 67	 1	 0.16	 0.04	 0	 0	 1	 1	 0	 138	 2	 1.1	 0.9;
	 68	 1	 9.16	 2.44	 0	 0	 1	 1	 0	 138	 1	 1.1	 0.9;
	 69	 1	 59.54	 15.88	 0	 0	 1	 1	 0	 138	 1	 1.1	 0.9;
	 70	 1	 4.05	 1.08	 0	 0	 1	 1	 0	 138	 1	 1.1	 0.9;
	 71	 2	 0	 0	 0	 0	 1	 1	 0	 13.8	 1	 1.1	 0.9;
	 72	 1	 0	 0	 0	 0	 1	 1	 0	 138	 1	 1.1	 0.9;
	 73	 2	 0	 0	 0	 0	 1	 1	 0	 13.8	 1	 1.1	 0.9;
	 74	 2	 0	 0	 0	 0	 1	 1	 0	 13.8	 1	 1.1	 0.9;
];

mpc_regionR3.gen = [
%	bus         Pg          Qg          Qmax        Qmin        Vg          mBase       status      Pmax        Pmin        Pc1         Pc2         Qc1min      Qc1max      Qc2min      Qc2max      ramp_agc    ramp_10     ramp_30     ramp_q      apf         
	 18	 391.655	 86.165	 221.74	-49.41	 1	 723.06	 1	 602.55	 180.76;
	 19	 391.655	 86.165	 221.74	-49.41	 1	 723.06	 1	 602.55	 180.76;
	 30	 3.38	 0.875	 2	-0.25	 1	 6.24	 1	 5.2	 1.56;
	 31	 11.7	 3.015	 6.91	-0.88	 1	 21.6	 1	 18	 5.4;
	 32	 332.28	 85.625	 196.3	-25.05	 1	 613.44	 1	 511.2	 153.36;
	 33	 334.62	 86.225	 197.68	-25.23	 1	 617.76	 1	 514.8	 154.44;
	 38	 0	 0	 51.51	-11.23	 1	 121.44	 0	 101.2	 30.36;
	 42	 1.885	 0.5	 1.35	-0.35	 1	 3.48	 1	 2.9	 0.87;
	 43	 1.885	 0.5	 1.35	-0.35	 1	 3.48	 1	 2.9	 0.87;
	 50	 27.495	 7.085	 16.24	-2.07	 1	 50.76	 1	 42.3	 12.69;
	 71	 0	 0	 2.7	-0.71	 1	 6.96	 0	 5.8	 1.74;
	 73	 39	 10.05	 23.04	-2.94	 1	 72	 1	 60	 18;
	 74	 11.7	 3.015	 6.91	-0.88	 1	 21.6	 1	 18	 5.4;
];

mpc_regionR3.branch = [
%	fbus        tbus        r           x           b           rateA       rateB       rateC       ratio       angle       status      angmin      angmax      
	 2	 1	 0.000556	 0.003563	 0	 4.49	 4.49	 4.49	 0	 0	 1	-30	 30;
	 47	 1	 0.002445	 0.02348	 0.00758	 320.29	 320.29	 320.29	 0	 0	 1	-30	 30;
	 57	 1	 0.004886	 0.04692	 0.01515	 320.29	 320.29	 320.29	 0	 0	 1	-30	 30;
	 4	 3	 0.000546	 0.003823	 0	 0.18	 0.18	 0.18	 0	 0	 1	-30	 30;
	 7	 3	 0.001474	 0.014156	 0.00457	 320.29	 320.29	 320.29	 0	 0	 1	-30	 30;
	 3	 23	 0.003039	 0.02918	 0.00942	 320.29	 320.29	 320.29	 0	 0	 1	-30	 30;
	 6	 5	 0.000669	 0.003998	 0	 27.64	 27.64	 27.64	 0	 0	 1	-30	 30;
	 5	 39	 0.004469	 0.040995	 0.01453	 320.29	 320.29	 320.29	 0	 0	 1	-30	 30;
	 5	 45	 0.001805	 0.017334	 0.0056	 320.29	 320.29	 320.29	 0	 0	 1	-30	 30;
	 8	 7	 0.000695	 0.003313	 0	 12.16	 12.16	 12.16	 0	 0	 1	-30	 30;
	 65	 7	 0.002012	 0.019322	 0.00624	 320.29	 320.29	 320.29	 0	 0	 1	-30	 30;
	 10	 9	 0.000623	 0.003569	 0	 7.69	 7.69	 7.69	 0	 0	 1	-30	 30;
	 9	 15	 0.001846	 0.017727	 0.00572	 320.29	 320.29	 320.29	 0	 0	 1	-30	 30;
	 9	 17	 0.00382	 0.035043	 0.01242	 320.29	 320.29	 320.29	 0	 0	 1	-30	 30;
	 61	 9	 0.001836	 0.017627	 0.00569	 320.29	 320.29	 320.29	 0	 0	 1	-30	 30;
	 12	 11	 0.000536	 0.003281	 0	 8.18	 8.18	 8.18	 0	 0	 1	-30	 30;
	 35	 11	 0.003921	 0.035965	 0.01275	 320.29	 320.29	 320.29	 0	 0	 1	-30	 30;
	 51	 11	 0.005795	 0.053155	 0.01884	 320.29	 320.29	 320.29	 0	 0	 1	-30	 30;
	 14	 13	 0.000527	 0.003708	 0	 87.02	 87.02	 87.02	 0	 0	 1	-30	 30;
	 37	 13	 0.003126	 0.030018	 0.00969	 320.29	 320.29	 320.29	 0	 0	 1	-30	 30;
	 13	 47	 0.003439	 0.033025	 0.01066	 320.29	 320.29	 320.29	 0	 0	 1	-30	 30;
	 16	 15	 0.000687	 0.003417	 0	 209.78	 209.78	 209.78	 0	 0	 1	-30	 30;
	 41	 15	 0.00267	 0.024495	 0.00868	 320.29	 320.29	 320.29	 0	 0	 1	-30	 30;
	 18	 17	 0.00152	 0.0766	 0	 336	 336	 336	 1	 0	 1	-30	 30;
	 18	 17	 0.00152	 0.0766	 0	 336	 336	 336	 1	 0	 1	-30	 30;
	 19	 17	 0.00119	 0.0337	 0	 322	 322	 322	 1	 0	 1	-30	 30;
	 19	 17	 0.00119	 0.0337	 0	 322	 322	 322	 1	 0	 1	-30	 30;
	 17	 53	 0.002116	 0.019409	 0.00688	 320.29	 320.29	 320.29	 0	 0	 1	-30	 30;
	 17	 57	 0.004057	 0.038957	 0.01258	 320.29	 320.29	 320.29	 0	 0	 1	-30	 30;
	 17	 65	 0.007537	 0.07237	 0.02336	 320.29	 320.29	 320.29	 0	 0	 1	-30	 30;
	 72	 17	 0.002039	 0.019581	 0.00632	 320.29	 320.29	 320.29	 0	 0	 1	-30	 30;
	 21	 20	 0.000593	 0.003935	 0	 102.39	 102.39	 102.39	 0	 0	 1	-30	 30;
	 67	 20	 0.003185	 0.030585	 0.00987	 320.29	 320.29	 320.29	 0	 0	 1	-30	 30;
	 23	 22	 0.00039	 0.03857	 0	 273	 273	 273	 1	 0	 1	-30	 30;
	 22	 28	 0.001099	 0.01596	 0.27851	 1493.89	 1493.89	 1493.89	 0	 0	 1	-30	 30;
	 24	 23	 0.000557	 0.003649	 0	 12.91	 12.91	 12.91	 0	 0	 1	-30	 30;
	 25	 23	 0.000684	 0.003156	 0	 10.65	 10.65	 10.65	 0	 0	 1	-30	 30;
	 49	 23	 0.003427	 0.032909	 0.01062	 320.29	 320.29	 320.29	 0	 0	 1	-30	 30;
	 27	 26	 0.000542	 0.003008	 0	 40.45	 40.45	 40.45	 0	 0	 1	-30	 30;
	 26	 34	 0.001965	 0.018868	 0.00609	 320.29	 320.29	 320.29	 0	 0	 1	-30	 30;
	 26	 37	 0.003673	 0.035265	 0.01138	 320.29	 320.29	 320.29	 0	 0	 1	-30	 30;
	 29	 28	 0.000872	 0.02901	 0	 556	 556	 556	 1	 0	 1	-30	 30;
	 30	 28	 0.000485	 0.02225	 0	 228	 228	 228	 1	 0	 1	-30	 30;
	 31	 28	 0.000575	 0.03062	 0	 248	 248	 248	 1	 0	 1	-30	 30;
	 32	 28	 0.000543	 0.02404	 0	 588	 588	 588	 1	 0	 1	-30	 30;
	 32	 28	 0.00043	 0.02404	 0	 588	 588	 588	 1	 0	 1	-30	 30;
	 33	 28	 0.00018	 0.01242	 0	 628	 628	 628	 1	 0	 1	-30	 30;
	 33	 28	 0.00018	 0.01242	 0	 628	 628	 628	 1	 0	 1	-30	 30;
	 29	 63	 0.00397	 0.038119	 0.01231	 320.29	 320.29	 320.29	 0	 0	 1	-30	 30;
	 29	 68	 0.003036	 0.029155	 0.00941	 320.29	 320.29	 320.29	 0	 0	 1	-30	 30;
	 29	 70	 0.003413	 0.032773	 0.01058	 320.29	 320.29	 320.29	 0	 0	 1	-30	 30;
	 36	 35	 0.000574	 0.003977	 0	 10.95	 10.95	 10.95	 0	 0	 1	-30	 30;
	 67	 35	 0.003534	 0.033937	 0.01096	 320.29	 320.29	 320.29	 0	 0	 1	-30	 30;
	 38	 37	 0.0012	 0.04081	 0	 225	 225	 225	 1	 0	 1	-30	 30;
	 40	 39	 0.000531	 0.003433	 0	 10.75	 10.75	 10.75	 0	 0	 1	-30	 30;
	 45	 39	 0.003193	 0.030657	 0.0099	 320.29	 320.29	 320.29	 0	 0	 1	-30	 30;
	 39	 63	 0.00342	 0.031369	 0.01112	 320.29	 320.29	 320.29	 0	 0	 1	-30	 30;
	 42	 41	 0.00245	 0.08126	 0	 67	 67	 67	 1	 0	 1	-30	 30;
	 43	 41	 0.00367	 0.07834	 0	 75	 75	 75	 1	 0	 1	-30	 30;
	 44	 41	 0.000646	 0.003997	 0	 139.23	 139.23	 139.23	 0	 0	 1	-30	 30;
	 59	 41	 0.003374	 0.032399	 0.01046	 320.29	 320.29	 320.29	 0	 0	 1	-30	 30;
	 41	 68	 0.008364	 0.080315	 0.02593	 320.29	 320.29	 320.29	 0	 0	 1	-30	 30;
	 46	 45	 0.000536	 0.003143	 0	 0.67	 0.67	 0.67	 0	 0	 1	-30	 30;
	 48	 47	 0.000671	 0.003045	 0	 5.45	 5.45	 5.45	 0	 0	 1	-30	 30;
	 50	 49	 0.00159	 0.07586	 0	 120	 120	 120	 1	 0	 1	-30	 30;
	 49	 51	 0.005467	 0.050154	 0.01777	 320.29	 320.29	 320.29	 0	 0	 1	-30	 30;
	 55	 49	 0.001301	 0.012497	 0.00403	 320.29	 320.29	 320.29	 0	 0	 1	-30	 30;
	 52	 51	 0.000563	 0.003904	 0	 9.71	 9.71	 9.71	 0	 0	 1	-30	 30;
	 55	 51	 0.005079	 0.048769	 0.01574	 320.29	 320.29	 320.29	 0	 0	 1	-30	 30;
	 69	 51	 0.006321	 0.060695	 0.01959	 320.29	 320.29	 320.29	 0	 0	 1	-30	 30;
	 54	 53	 0.000558	 0.003629	 0	 98.2	 98.2	 98.2	 0	 0	 1	-30	 30;
	 53	 66	 0.001952	 0.017902	 0.00634	 320.29	 320.29	 320.29	 0	 0	 1	-30	 30;
	 56	 55	 0.000587	 0.003819	 0	 20.35	 20.35	 20.35	 0	 0	 1	-30	 30;
	 58	 57	 0.000511	 0.003712	 0	 123.69	 123.69	 123.69	 0	 0	 1	-30	 30;
	 60	 59	 0.000583	 0.003551	 0	 8.23	 8.23	 8.23	 0	 0	 1	-30	 30;
	 69	 59	 0.004321	 0.041496	 0.0134	 320.29	 320.29	 320.29	 0	 0	 1	-30	 30;
	 62	 61	 0.000683	 0.003864	 0	 273.23	 273.23	 273.23	 0	 0	 1	-30	 30;
	 61	 72	 0.003743	 0.035945	 0.0116	 320.29	 320.29	 320.29	 0	 0	 1	-30	 30;
	 64	 63	 0.000578	 0.003842	 0	 76.12	 76.12	 76.12	 0	 0	 1	-30	 30;
	 66	 72	 0.002071	 0.019002	 0.00673	 320.29	 320.29	 320.29	 0	 0	 1	-30	 30;
	 71	 70	 0.00119	 0.0643	 0	 75	 75	 75	 1	 0	 1	-30	 30;
	 73	 72	 0.00147	 0.0647	 0	 204	 204	 204	 1	 0	 1	-30	 30;
	 74	 72	 0.004006	 0.11755	 0	 150	 150	 150	 1	 0	 1	-30	 30;
];

mpc_regionR3.gencost = [
%	2           startup     shutdown    n           c(n-1)...c0 
	 2	 0	 0	 3	 0	 6.87	 1363.88;
	 2	 0	 0	 3	 0	 8.143	 1060.19;
	 2	 0	 0	 3	 0	 0	 0;
	 2	 0	 0	 3	 0	 0	 0;
	 2	 0	 0	 3	 0	 0	 0;
	 2	 0	 0	 3	 0	 0	 0;
	 2	 0	 0	 3	 0.002	 23.816	 751.8;
	 2	 0	 0	 3	 0.002	 19	 236.08;
	 2	 0	 0	 3	 0.002	 19	 236.08;
	 2	 0	 0	 3	 0	 0	 0;
	 2	 0	 0	 3	 0.002	 19	 236.15;
	 2	 0	 0	 3	 0	 0	 0;
	 2	 0	 0	 3	 0	 0	 0;
];


% -------------------- mpc_regionR4 --------------------

mpc_regionR4.version = '2';
mpc_regionR4.baseMVA = 100.0000;
mpc_regionR4.bus = [
%	bus_i       type        Pd          Qd          Gs          Bs          area        Vm          Va          baseKV      zone        Vmax        Vmin        
	 1	 1	 0	 0	 0	 0	 1	 1	 0	 138	 2	 1.1	 0.9;
	 2	 1	 2.47	 0.66	 0	 0	 1	 1	 0	 138	 2	 1.1	 0.9;
	 3	 1	 0	 0	 0	 0	 1	 1	 0	 138	 1	 1.1	 0.9;
	 4	 1	 37.16	 9.91	 0	 0	 1	 1	 0	 138	 1	 1.1	 0.9;
	 5	 1	 0	 0	 0	 0	 1	 1	 0	 138	 2	 1.1	 0.9;
	 6	 1	 25	 6.67	 0	 0	 1	 1	 0	 138	 2	 1.1	 0.9;
	 7	 1	 0	 0	 0	 0	 1	 1	 0	 138	 1	 1.1	 0.9;
	 8	 2	 0	 0	 0	 0	 1	 1	 0	 13.8	 1	 1.1	 0.9;
	 9	 2	 0	 0	 0	 0	 1	 1	 0	 13.8	 1	 1.1	 0.9;
	 10	 2	 0	 0	 0	 0	 1	 1	 0	 13.8	 1	 1.1	 0.9;
	 11	 1	 0	 0	 0	 0	 1	 1	 0	 138	 2	 1.1	 0.9;
	 12	 1	 61.41	 16.38	 0	 0	 1	 1	 0	 138	 2	 1.1	 0.9;
	 13	 1	 0	 0	 0	 0	 1	 1	 0	 138	 1	 1.1	 0.9;
	 14	 1	 8.83	 2.36	 0	 0	 1	 1	 0	 138	 1	 1.1	 0.9;
	 15	 1	 0	 0	 0	 0	 1	 1	 0	 138	 1	 1.1	 0.9;
	 16	 1	 78.71	 20.99	 0	 0	 1	 1	 0	 138	 1	 1.1	 0.9;
	 17	 1	 0	 0	 0	 0	 1	 1	 0	 138	 1	 1.1	 0.9;
	 18	 1	 3.14	 0.84	 0	 0	 1	 1	 0	 138	 1	 1.1	 0.9;
	 19	 1	 7.3	 1.95	 0	 0	 1	 1	 0	 138	 1	 1.1	 0.9;
	 20	 1	 0	 0	 0	 0	 1	 1	 0	 138	 1	 1.1	 0.9;
	 21	 1	 4.69	 1.25	 0	 0	 1	 1	 0	 138	 1	 1.1	 0.9;
	 22	 1	 45.67	 12.18	 0	 0	 1	 1	 0	 138	 1	 1.1	 0.9;
	 23	 1	 0	 0	 0	 0	 1	 1	 0	 138	 1	 1.1	 0.9;
	 24	 1	 84.48	 22.53	 0	 0	 1	 1	 0	 138	 1	 1.1	 0.9;
	 25	 1	 0	 0	 0	 0	 1	 1	 0	 138	 1	 1.1	 0.9;
	 26	 1	 55.1	 14.69	 0	 0	 1	 1	 0	 138	 1	 1.1	 0.9;
	 27	 1	 0	 0	 0	 0	 1	 1	 0	 138	 1	 1.1	 0.9;
	 28	 1	 11.83	 3.16	 0	 0	 1	 1	 0	 138	 1	 1.1	 0.9;
	 29	 1	 0	 0	 0	 0	 1	 1	 0	 345	 1	 1.1	 0.9;
	 30	 1	 0	 0	 0	 0	 1	 1	 0	 138	 1	 1.1	 0.9;
	 31	 1	 14.57	 3.88	 0	 0	 1	 1	 0	 138	 1	 1.1	 0.9;
	 32	 1	 0	 0	 0	 0	 1	 1	 0	 138	 2	 1.1	 0.9;
	 33	 1	 2.51	 0.67	 0	 0	 1	 1	 0	 138	 2	 1.1	 0.9;
	 34	 1	 2.43	 0.65	 0	 0	 1	 1	 0	 138	 2	 1.1	 0.9;
	 35	 1	 0	 0	 0	 0	 1	 1	 0	 138	 2	 1.1	 0.9;
	 36	 2	 0	 0	 0	 0	 1	 1	 0	 13.8	 2	 1.1	 0.9;
	 37	 2	 0	 0	 0	 0	 1	 1	 0	 13.8	 2	 1.1	 0.9;
	 38	 2	 0	 0	 0	 0	 1	 1	 0	 13.8	 2	 1.1	 0.9;
	 39	 2	 0	 0	 0	 0	 1	 1	 0	 13.8	 2	 1.1	 0.9;
	 40	 1	 0	 0	 0	 0	 1	 1	 0	 138	 1	 1.1	 0.9;
	 41	 1	 10.13	 2.7	 0	 0	 1	 1	 0	 138	 1	 1.1	 0.9;
	 42	 1	 0	 0	 0	 0	 1	 1	 0	 138	 1	 1.1	 0.9;
	 43	 1	 19.77	 5.27	 0	 0	 1	 1	 0	 138	 1	 1.1	 0.9;
	 44	 1	 0	 0	 0	 0	 1	 1	 0	 345	 1	 1.1	 0.9;
	 45	 1	 0	 0	 0	 50	 1	 1	 0	 138	 1	 1.1	 0.9;
	 46	 1	 14.43	 3.85	 0	 0	 1	 1	 0	 138	 1	 1.1	 0.9;
	 47	 1	 29.81	 7.95	 0	 0	 1	 1	 0	 138	 1	 1.1	 0.9;
];

mpc_regionR4.gen = [
%	bus         Pg          Qg          Qmax        Qmin        Vg          mBase       status      Pmax        Pmin        Pc1         Pc2         Qc1min      Qc1max      Qc2min      Qc2max      ramp_agc    ramp_10     ramp_30     ramp_q      apf         
	 8	 2.6	 0.67	 1.54	-0.2	 1	 4.8	 1	 4	 1.2;
	 9	 1.3	 0.335	 0.77	-0.1	 1	 2.4	 1	 2	 0.6;
	 10	 0.91	 0.235	 0.54	-0.07	 1	 1.68	 1	 1.4	 0.42;
	 36	 9.75	 2.51	 5.76	-0.74	 1	 18	 1	 15	 4.5;
	 37	 4.03	 1.04	 2.38	-0.3	 1	 7.44	 1	 6.2	 1.86;
	 38	 9.36	 2.41	 5.53	-0.71	 1	 17.28	 1	 14.4	 4.32;
	 39	 48.1	 12.395	 28.42	-3.63	 1	 88.8	 1	 74	 22.2;
];

mpc_regionR4.branch = [
%	fbus        tbus        r           x           b           rateA       rateB       rateC       ratio       angle       status      angmin      angmax      
	 2	 1	 0.000655	 0.003201	 0	 3.96	 3.96	 3.96	 0	 0	 1	-30	 30;
	 32	 1	 0.002825	 0.027123	 0.00876	 320.29	 320.29	 320.29	 0	 0	 1	-30	 30;
	 1	 35	 0.001402	 0.01346	 0.00434	 320.29	 320.29	 320.29	 0	 0	 1	-30	 30;
	 4	 3	 0.000623	 0.003134	 0	 65.5	 65.5	 65.5	 0	 0	 1	-30	 30;
	 3	 25	 0.003962	 0.038048	 0.01228	 320.29	 320.29	 320.29	 0	 0	 1	-30	 30;
	 6	 5	 0.000624	 0.003284	 0	 43.35	 43.35	 43.35	 0	 0	 1	-30	 30;
	 11	 5	 0.005287	 0.050764	 0.01639	 320.29	 320.29	 320.29	 0	 0	 1	-30	 30;
	 8	 7	 0.00103	 0.04472	 0	 133	 133	 133	 1	 0	 1	-30	 30;
	 9	 7	 0.00292	 0.14481	 0	 60	 60	 60	 1	 0	 1	-30	 30;
	 10	 7	 0.012696	 0.27303	 0	 49	 49	 49	 1	 0	 1	-30	 30;
	 25	 7	 0.002596	 0.02381	 0.00844	 320.29	 320.29	 320.29	 0	 0	 1	-30	 30;
	 7	 47	 0.002127	 0.019512	 0.00691	 320.29	 320.29	 320.29	 0	 0	 1	-30	 30;
	 12	 11	 0.000638	 0.003655	 0	 105.41	 105.41	 105.41	 0	 0	 1	-30	 30;
	 11	 32	 0.004116	 0.03952	 0.01276	 320.29	 320.29	 320.29	 0	 0	 1	-30	 30;
	 14	 13	 0.000634	 0.003851	 0	 12.8	 12.8	 12.8	 0	 0	 1	-30	 30;
	 13	 45	 0.003172	 0.029099	 0.01031	 320.29	 320.29	 320.29	 0	 0	 1	-30	 30;
	 47	 13	 0.002999	 0.027508	 0.00975	 320.29	 320.29	 320.29	 0	 0	 1	-30	 30;
	 16	 15	 0.000556	 0.003788	 0	 122.92	 122.92	 122.92	 0	 0	 1	-30	 30;
	 15	 23	 0.00312	 0.029961	 0.00967	 320.29	 320.29	 320.29	 0	 0	 1	-30	 30;
	 15	 45	 0.002998	 0.028792	 0.00929	 320.29	 320.29	 320.29	 0	 0	 1	-30	 30;
...